H112_v05.fds
Generated by PyroSim - Version 2020.2.0520
05.03.2021 10:43:09

-------------User Section (not generated by PyroSim)-------------

&VENT MB='XMIN', SURF_ID='OPEN' /
&VENT MB='XMAX', SURF_ID='OPEN' /
&VENT MB='YMIN', SURF_ID='OPEN' /
&VENT MB='YMAX', SURF_ID='OPEN' /
&VENT MB='ZMAX', SURF_ID='OPEN' /


--------------------PyroSim-generated Section--------------------

&HEAD CHID='H112_v05'/
&TIME T_END=4000.0/
&DUMP DT_DEVC=10.0, DT_HRR=10.0, DT_PL3D=120.0, DT_SLCF=60.0, WRITE_XYZ=.TRUE., PLOT3D_QUANTITY(1:4)='TEMPERATURE','U-VELOCITY','V-VELOCITY','W-VELOCITY'/

&MESH ID='Mesh01-a-a-a', IJK=88,72,22, XB=-2.0,20.0,-2.0,16.0,-0.25,5.25/
&MESH ID='Mesh01-a-a-b', IJK=88,72,27, XB=-2.0,20.0,-2.0,16.0,5.25,12.0/
&MESH ID='Mesh01-a-b-a', IJK=80,72,22, XB=20.0,40.0,-2.0,16.0,-0.25,5.25/
&MESH ID='Mesh01-a-b-b', IJK=80,72,27, XB=20.0,40.0,-2.0,16.0,5.25,12.0/
&MESH ID='Mesh01-a-c-a', IJK=88,72,22, XB=40.0,62.0,-2.0,16.0,-0.25,5.25/
&MESH ID='Mesh01-a-c-b', IJK=88,72,27, XB=40.0,62.0,-2.0,16.0,5.25,12.0/
&MESH ID='Mesh01-b-a', IJK=88,32,49, XB=-2.0,20.0,16.0,24.0,-0.25,12.0/
&MESH ID='Mesh01-b-b', IJK=80,32,49, XB=20.0,40.0,16.0,24.0,-0.25,12.0/
&MESH ID='Mesh01-b-c', IJK=88,32,49, XB=40.0,62.0,16.0,24.0,-0.25,12.0/
&MESH ID='Mesh01-c-a-a', IJK=88,68,22, XB=-2.0,20.0,24.0,41.0,-0.25,5.25/
&MESH ID='Mesh01-c-a-b', IJK=88,68,27, XB=-2.0,20.0,24.0,41.0,5.25,12.0/
&MESH ID='Mesh01-c-b-a', IJK=80,68,22, XB=20.0,40.0,24.0,41.0,-0.25,5.25/
&MESH ID='Mesh01-c-b-b', IJK=80,68,27, XB=20.0,40.0,24.0,41.0,5.25,12.0/
&MESH ID='Mesh01-c-c-a', IJK=88,68,22, XB=40.0,62.0,24.0,41.0,-0.25,5.25/
&MESH ID='Mesh01-c-c-b', IJK=88,68,27, XB=40.0,62.0,24.0,41.0,5.25,12.0/


&REAC ID='DIN 18230-4',
      FYI='DIN 18230-4 SPEC',
      FUEL='REAC_FUEL',
      C=1.0,
      H=0.136,
      O=1.136,
      CRITICAL_FLAME_TEMPERATURE=1327.0,
      AUTO_IGNITION_TEMPERATURE=0.0,
      CO_YIELD=0.01,
      SOOT_YIELD=0.01,
      HEAT_OF_COMBUSTION=1.728E4,
      RADIATIVE_FRACTION=0.2/

&DEVC ID='Raum3-Reihe1-01', QUANTITY='TEMPERATURE', XYZ=0.125,16.125,9.625/
&DEVC ID='Raum3-Reihe1-02', QUANTITY='TEMPERATURE', XYZ=4.125,16.125,9.625/
&DEVC ID='Raum3-Reihe1-03', QUANTITY='TEMPERATURE', XYZ=8.125,16.125,9.625/
&DEVC ID='Raum3-Reihe1-04', QUANTITY='TEMPERATURE', XYZ=12.125,16.125,9.625/
&DEVC ID='Raum3-Reihe1-05', QUANTITY='TEMPERATURE', XYZ=16.125,16.125,9.625/
&DEVC ID='Raum3-Reihe1-06', QUANTITY='TEMPERATURE', XYZ=20.125,16.125,9.625/
&DEVC ID='Raum3-Reihe1-07', QUANTITY='TEMPERATURE', XYZ=24.125,16.125,9.625/
&DEVC ID='Raum3-Reihe1-08', QUANTITY='TEMPERATURE', XYZ=28.125,16.125,9.625/
&DEVC ID='Raum3-Reihe1-09', QUANTITY='TEMPERATURE', XYZ=32.125,16.125,9.625/
&DEVC ID='Raum3-Reihe1-10', QUANTITY='TEMPERATURE', XYZ=36.125,16.125,9.625/
&DEVC ID='Raum3-Reihe1-11', QUANTITY='TEMPERATURE', XYZ=40.125,16.125,9.625/
&DEVC ID='Raum3-Reihe1-12', QUANTITY='TEMPERATURE', XYZ=44.125,16.125,9.625/
&DEVC ID='Raum3-Reihe1-13', QUANTITY='TEMPERATURE', XYZ=48.125,16.125,9.625/
&DEVC ID='Raum3-Reihe1-14', QUANTITY='TEMPERATURE', XYZ=52.125,16.125,9.625/
&DEVC ID='Raum3-Reihe1-15', QUANTITY='TEMPERATURE', XYZ=56.125,16.125,9.625/
&DEVC ID='Raum3-Reihe1-16', QUANTITY='TEMPERATURE', XYZ=59.875,16.125,9.625/
&DEVC ID='Raum3-Reihe2-01', QUANTITY='TEMPERATURE', XYZ=0.125,20.125,9.625/
&DEVC ID='Raum3-Reihe3-04', QUANTITY='TEMPERATURE', XYZ=0.125,23.875,9.625/
&DEVC ID='Raum3-Reihe2-02', QUANTITY='TEMPERATURE', XYZ=4.125,20.125,9.625/
&DEVC ID='Raum3-Reihe2-03', QUANTITY='TEMPERATURE', XYZ=8.125,20.125,9.625/
! ... 348 like lines cut
&DEVC ID='LAYERRaum1_1->HEIGHT', QUANTITY='LAYER HEIGHT', XB=15.0,15.0,32.0,32.0,0.0,5.0/
&DEVC ID='LAYERRaum1_1->LTEMP', QUANTITY='LOWER TEMPERATURE', XB=15.0,15.0,32.0,32.0,0.0,5.0/
&DEVC ID='LAYERRaum1_1->UTEMP', QUANTITY='UPPER TEMPERATURE', XB=15.0,15.0,32.0,32.0,0.0,5.0/
&DEVC ID='LAYERRaum1_2->HEIGHT', QUANTITY='LAYER HEIGHT', XB=45.0,45.0,32.0,32.0,0.0,5.0/
&DEVC ID='LAYERRaum1_2->LTEMP', QUANTITY='LOWER TEMPERATURE', XB=45.0,45.0,32.0,32.0,0.0,5.0/
&DEVC ID='LAYERRaum1_2->UTEMP', QUANTITY='UPPER TEMPERATURE', XB=45.0,45.0,32.0,32.0,0.0,5.0/
&DEVC ID='LAYERRaum2_1->HEIGHT', QUANTITY='LAYER HEIGHT', XB=15.0,15.0,8.0,8.0,0.0,5.0/
&DEVC ID='LAYERRaum2_1->LTEMP', QUANTITY='LOWER TEMPERATURE', XB=15.0,15.0,8.0,8.0,0.0,5.0/
&DEVC ID='LAYERRaum2_1->UTEMP', QUANTITY='UPPER TEMPERATURE', XB=15.0,15.0,8.0,8.0,0.0,5.0/
&DEVC ID='LAYERRaum2_2->HEIGHT', QUANTITY='LAYER HEIGHT', XB=45.0,45.0,8.0,8.0,0.0,5.0/
&DEVC ID='LAYERRaum2_2->LTEMP', QUANTITY='LOWER TEMPERATURE', XB=45.0,45.0,8.0,8.0,0.0,5.0/
&DEVC ID='LAYERRaum2_2->UTEMP', QUANTITY='UPPER TEMPERATURE', XB=45.0,45.0,8.0,8.0,0.0,5.0/
&DEVC ID='LAYERRaum3_2->HEIGHT', QUANTITY='LAYER HEIGHT', XB=45.0,45.0,20.0,20.0,0.0,10.0/
&DEVC ID='LAYERRaum3_2->LTEMP', QUANTITY='LOWER TEMPERATURE', XB=45.0,45.0,20.0,20.0,0.0,10.0/
&DEVC ID='LAYERRaum3_2->UTEMP', QUANTITY='UPPER TEMPERATURE', XB=45.0,45.0,20.0,20.0,0.0,10.0, SETPOINT=300.0/
&DEVC ID='LAYERRaum3_1->HEIGHT', QUANTITY='LAYER HEIGHT', XB=15.0,15.0,20.0,20.0,0.0,10.0/
&DEVC ID='LAYERRaum3_1->LTEMP', QUANTITY='LOWER TEMPERATURE', XB=15.0,15.0,20.0,20.0,0.0,10.0/
&DEVC ID='LAYERRaum3_1->UTEMP', QUANTITY='UPPER TEMPERATURE', XB=15.0,15.0,20.0,20.0,0.0,10.0, SETPOINT=300.0/
&DEVC ID='LAYERRaum4_1->HEIGHT', QUANTITY='LAYER HEIGHT', XB=15.0,15.0,32.0,32.0,5.25,10.0/
&DEVC ID='LAYERRaum4_1->LTEMP', QUANTITY='LOWER TEMPERATURE', XB=15.0,15.0,32.0,32.0,5.25,10.0/
&DEVC ID='LAYERRaum4_1->UTEMP', QUANTITY='UPPER TEMPERATURE', XB=15.0,15.0,32.0,32.0,5.25,10.0/
&DEVC ID='LAYERRaum4_2->HEIGHT', QUANTITY='LAYER HEIGHT', XB=45.0,45.0,32.0,32.0,5.25,10.0/
&DEVC ID='LAYERRaum4_2->LTEMP', QUANTITY='LOWER TEMPERATURE', XB=45.0,45.0,32.0,32.0,5.25,10.0/
&DEVC ID='LAYERRaum4_2->UTEMP', QUANTITY='UPPER TEMPERATURE', XB=45.0,45.0,32.0,32.0,5.25,10.0/
&DEVC ID='LAYERRaum5_1->HEIGHT', QUANTITY='LAYER HEIGHT', XB=15.0,15.0,8.0,8.0,5.25,10.0/
&DEVC ID='LAYERRaum5_1->LTEMP', QUANTITY='LOWER TEMPERATURE', XB=15.0,15.0,8.0,8.0,5.25,10.0/
&DEVC ID='LAYERRaum5_1->UTEMP', QUANTITY='UPPER TEMPERATURE', XB=15.0,15.0,8.0,8.0,5.25,10.0/
&DEVC ID='LAYERRaum5_2->HEIGHT', QUANTITY='LAYER HEIGHT', XB=45.0,45.0,8.0,8.0,5.25,10.0/
&DEVC ID='LAYERRaum5_2->LTEMP', QUANTITY='LOWER TEMPERATURE', XB=45.0,45.0,8.0,8.0,5.25,10.0/
&DEVC ID='LAYERRaum5_2->UTEMP', QUANTITY='UPPER TEMPERATURE', XB=45.0,45.0,8.0,8.0,5.25,10.0/
&DEVC ID='FLOWC3F-V', QUANTITY='VOLUME FLOW', XB=0.0,0.0,18.0,22.0,0.0,4.0/
&DEVC ID='FLOW_C3F-M', QUANTITY='MASS FLOW', XB=0.0,0.0,18.0,22.0,0.0,4.0/
&DEVC ID='FLOWVent03-V', QUANTITY='VOLUME FLOW', XB=18.0,42.0,19.5,20.5,10.0,10.0/
&DEVC ID='FLOWVent03-M', QUANTITY='MASS FLOW', XB=18.0,42.0,19.5,20.5,10.0,10.0/
&DEVC ID='FLOWVent02-V', QUANTITY='VOLUME FLOW', XB=6.0,54.0,7.5,8.5,10.0,10.0/
&DEVC ID='FLOWVent02-M', QUANTITY='MASS FLOW', XB=6.0,54.0,7.5,8.5,10.0,10.0/
&DEVC ID='FLOWVent01-V', QUANTITY='VOLUME FLOW', XB=6.0,54.0,31.5,32.5,10.0,10.0/
&DEVC ID='FLOWVent01-M', QUANTITY='MASS FLOW', XB=6.0,54.0,31.5,32.5,10.0,10.0/
&DEVC ID='TIMER->OUT', QUANTITY='TIME', XYZ=-2.0,-2.0,-0.25, SETPOINT=120.0, INITIAL_STATE=.TRUE./

&MATL ID='Daemmung',
      SPECIFIC_HEAT=1.03,
      CONDUCTIVITY=0.21,
      DENSITY=30.0/
&MATL ID='GYPSUM',
      FYI='Quintiere - Principles of fire behaviour',
      SPECIFIC_HEAT=1.0,
      CONDUCTIVITY=0.035,
      DENSITY=700.0/

&SURF ID='DAEMMWAND',
      COLOR='GRAY 60',
      BACKING='VOID',
      MATL_ID(1,1)='Daemmung',
      MATL_MASS_FRACTION(1,1)=1.0,
      THICKNESS(1)=0.08/
&SURF ID='GIPS',
      RGB=153,153,255,
      BACKING='VOID',
      MATL_ID(1,1)='GYPSUM',
      MATL_MASS_FRACTION(1,1)=1.0,
      THICKNESS(1)=0.04,
      GEOMETRY='CARTESIAN',
      LENGTH=0.0,
      WIDTH=0.0/
&SURF ID='BrandRaum1u2',
      COLOR='RED',
      HRRPUA=398.933,
      RAMP_Q='BrandRaum1u2_RAMP_Q'/
&RAMP ID='BrandRaum1u2_RAMP_Q', T=0.0, F=0.0/
&RAMP ID='BrandRaum1u2_RAMP_Q', T=10.0, F=3.6361E-5/
&RAMP ID='BrandRaum1u2_RAMP_Q', T=20.0, F=1.45444E-4/
&RAMP ID='BrandRaum1u2_RAMP_Q', T=30.0, F=3.27249E-4/
&RAMP ID='BrandRaum1u2_RAMP_Q', T=40.0, F=5.81776E-4/
&RAMP ID='BrandRaum1u2_RAMP_Q', T=50.0, F=9.09026E-4/
&RAMP ID='BrandRaum1u2_RAMP_Q', T=60.0, F=1.308997E-3/
&RAMP ID='BrandRaum1u2_RAMP_Q', T=70.0, F=1.78169E-3/
&RAMP ID='BrandRaum1u2_RAMP_Q', T=80.0, F=2.327106E-3/
&RAMP ID='BrandRaum1u2_RAMP_Q', T=90.0, F=2.945243E-3/
&RAMP ID='BrandRaum1u2_RAMP_Q', T=100.0, F=3.636103E-3/
&RAMP ID='BrandRaum1u2_RAMP_Q', T=110.0, F=4.399684E-3/
&RAMP ID='BrandRaum1u2_RAMP_Q', T=120.0, F=5.235988E-3/
&RAMP ID='BrandRaum1u2_RAMP_Q', T=130.0, F=6.145013E-3/
&RAMP ID='BrandRaum1u2_RAMP_Q', T=140.0, F=7.126761E-3/
&RAMP ID='BrandRaum1u2_RAMP_Q', T=150.0, F=8.181231E-3/
&RAMP ID='BrandRaum1u2_RAMP_Q', T=160.0, F=9.308423E-3/
&RAMP ID='BrandRaum1u2_RAMP_Q', T=170.0, F=0.010508/
&RAMP ID='BrandRaum1u2_RAMP_Q', T=180.0, F=0.011781/
&RAMP ID='BrandRaum1u2_RAMP_Q', T=190.0, F=0.013126/
! ... 316 like lines cut

&OBST ID='Obstruction', XB=-0.25,60.25,-0.25,40.25,-0.25,0.0, SURF_ID='DAEMMWAND'/ 
&OBST ID='Obstruction', XB=-0.25,60.25,8.5,19.5,10.0,10.25, SURF_ID='DAEMMWAND'/ 
&OBST ID='Obstruction', XB=-0.25,60.25,40.0,40.25,4.0,10.0, SURF_ID='DAEMMWAND'/ 
&OBST ID='Obstruction', XB=-0.25,0.0,0.0,40.0,5.0,10.0, SURF_ID='DAEMMWAND'/ 
&OBST ID='Obstruction', XB=60.0,60.25,0.0,40.0,4.0,10.0, SURF_ID='DAEMMWAND'/ 
&OBST ID='Obstruction', XB=-0.25,60.25,-0.25,0.0,4.0,10.0, SURF_ID='DAEMMWAND'/ 
&OBST ID='Obstruction', XB=-0.25,60.25,-0.25,16.0,5.0,5.25, SURF_ID='GIPS'/ 
&OBST ID='Obstruction', XB=-0.25,60.25,24.0,40.25,5.0,5.25, SURF_ID='GIPS'/ 
&OBST ID='Obstruction', XB=-0.25,0.0,0.0,18.0,0.0,5.0, SURF_ID='DAEMMWAND'/ 
&OBST ID='Obstruction', XB=-0.25,0.0,22.0,40.0,0.0,5.0, SURF_ID='DAEMMWAND'/ 
&OBST ID='Obstruction', XB=-0.25,0.0,18.0,22.0,4.0,5.0, SURF_ID='DAEMMWAND'/ 
&OBST ID='Obstruction', XB=-0.25,60.25,0.0,7.5,10.0,10.25, SURF_ID='DAEMMWAND'/ 
&OBST ID='RWA_RAUM1', XB=6.0,54.0,31.5,32.5,10.0,10.25, SURF_ID='DAEMMWAND'/ 
&OBST ID='RWA_RAUM2', XB=6.0,54.0,7.5,8.5,10.0,10.25, SURF_ID='DAEMMWAND'/ 
&OBST ID='RWA_RAUM3', XB=18.0,42.0,19.5,20.5,10.0,10.25, SURF_ID='DAEMMWAND'/ 
&OBST ID='Tor1', XB=-0.25,0.0,18.0,22.0,0.0,4.0, SURF_ID='DAEMMWAND', DEVC_ID='TIMER->OUT'/ 
&OBST ID='Obstruction', XB=60.0,60.25,22.0,40.0,0.0,4.0, SURF_ID='DAEMMWAND'/ 
&OBST ID='Obstruction', XB=60.0,60.25,0.0,18.25,0.0,4.0, SURF_ID='DAEMMWAND'/ 
&OBST ID='Tor5', XB=60.0,60.25,18.25,22.0,0.0,4.0, SURF_ID='DAEMMWAND'/ 
&OBST ID='Obstruction', XB=-0.25,12.25,-0.25,0.0,0.0,4.0, SURF_ID='DAEMMWAND'/ 
&OBST ID='Tor8', XB=12.25,16.0,-0.25,0.0,0.0,4.0, SURF_ID='DAEMMWAND'/ 
&OBST ID='Tor7', XB=28.25,32.0,-0.25,0.0,0.0,4.0, SURF_ID='DAEMMWAND'/ 
&OBST ID='Obstruction', XB=16.0,28.25,-0.25,0.0,0.0,4.0, SURF_ID='DAEMMWAND'/ 
&OBST ID='Tor6', XB=44.0,47.75,-0.25,0.0,0.0,4.0, SURF_ID='DAEMMWAND'/ 
&OBST ID='Obstruction', XB=47.75,60.25,-0.25,0.0,0.0,4.0, SURF_ID='DAEMMWAND'/ 
&OBST ID='Obstruction', XB=32.0,44.0,-0.25,0.0,0.0,4.0, SURF_ID='DAEMMWAND'/ 
&OBST ID='Tor4', XB=44.0,47.75,40.0,40.25,0.0,4.0, SURF_ID='DAEMMWAND'/ 
&OBST ID='Obstruction', XB=32.0,44.0,40.0,40.25,0.0,4.0, SURF_ID='DAEMMWAND'/ 
&OBST ID='Obstruction', XB=47.75,60.25,40.0,40.25,0.0,4.0, SURF_ID='DAEMMWAND'/ 
&OBST ID='Tor3', XB=28.25,32.0,40.0,40.25,0.0,4.0, SURF_ID='DAEMMWAND'/ 
&OBST ID='Obstruction', XB=16.0,28.25,40.0,40.25,0.0,4.0, SURF_ID='DAEMMWAND'/ 
&OBST ID='Tor2', XB=12.25,16.0,40.0,40.25,0.0,4.0, SURF_ID='DAEMMWAND'/ 
&OBST ID='Obstruction', XB=-0.25,12.25,40.0,40.25,0.0,4.0, SURF_ID='DAEMMWAND'/ 
&OBST ID='Obstruction', XB=-0.25,60.25,20.5,31.5,10.0,10.25, SURF_ID='DAEMMWAND'/ 
&OBST ID='Obstruction', XB=-0.25,60.25,32.5,40.0,10.0,10.25, SURF_ID='DAEMMWAND'/ 
&OBST ID='Obstruction', XB=-0.25,6.0,31.5,32.5,10.0,10.25, SURF_ID='DAEMMWAND', TEXTURE_ORIGIN=-0.25,31.5,10.0/ 
&OBST ID='Obstruction', XB=-0.25,6.0,7.5,8.5,10.0,10.25, SURF_ID='DAEMMWAND', TEXTURE_ORIGIN=-0.25,7.5,10.0/ 
&OBST ID='Obstruction', XB=54.0,60.25,7.5,8.5,10.0,10.25, SURF_ID='DAEMMWAND', TEXTURE_ORIGIN=54.0,7.5,10.0/ 
&OBST ID='Obstruction', XB=54.0,60.25,31.5,32.5,10.0,10.25, SURF_ID='DAEMMWAND', TEXTURE_ORIGIN=54.0,31.5,10.0/ 
&OBST ID='Obstruction', XB=-0.25,18.0,19.5,20.5,10.0,10.25, SURF_ID='DAEMMWAND', TEXTURE_ORIGIN=-0.25,19.5,10.0/ 
&OBST ID='Obstruction', XB=42.0,60.25,19.5,20.5,10.0,10.25, SURF_ID='DAEMMWAND', TEXTURE_ORIGIN=42.0,19.5,10.0/ 

&VENT ID='FEUER1', SURF_ID='BrandRaum1u2', XB=22.0,38.0,24.0,36.5,0.0,0.0/ 
&VENT ID='FEUER2', SURF_ID='BrandRaum1u2', XB=22.0,38.0,3.5,16.0,0.0,0.0/ 
&VENT ID='FEUER3', SURF_ID='BrandRaum1u2', XB=27.0,33.25,16.0,24.0,0.0,0.0/ 

&SLCF QUANTITY='VELOCITY', VECTOR=.TRUE., PBY=10.0/
&SLCF QUANTITY='VELOCITY', VECTOR=.TRUE., PBY=20.0/
&SLCF QUANTITY='VELOCITY', VECTOR=.TRUE., PBY=30.0/
&SLCF QUANTITY='VELOCITY', VECTOR=.TRUE., PBX=30.0/
&SLCF QUANTITY='TEMPERATURE', PBY=10.0/
&SLCF QUANTITY='TEMPERATURE', CELL_CENTERED=.TRUE., PBY=20.0/
&SLCF QUANTITY='TEMPERATURE', PBY=30.0/
&SLCF QUANTITY='TEMPERATURE', PBX=30.0/
&SLCF QUANTITY='TEMPERATURE', PBZ=10.0/
&SLCF QUANTITY='VELOCITY', VECTOR=.TRUE., PBZ=10.0/


&TAIL /
