
 Fire Dynamics Simulator

 Current Date     : March 11, 2021  12:12:09
 Revision         : -main
 Revision Date    : Thu Mar 11 11:47:34 2021 +0100
 Compiler         : Intel ifort 18.0.1
 Compilation Date : Mar 11, 2021 11:51:20

 MPI Enabled;    Number of MPI Processes:      30
 OpenMP Enabled; Number of OpenMP Threads:      1

 MPI version: 3.1
 MPI library version: Intel(R) MPI Library 2018 Update 1 for Linux* OS


 Job TITLE        : Wu and Bakar 0.136 by 0.25 m tunnel, FSJ 2000
 Job ID string    : Wu_Bakar_Tunnel_A_scarc_xmean


 Grid Dimensions, Mesh     1

   Cells in the X Direction            50
   Cells in the Y Direction            14
   Cells in the Z Direction            25
   Number of Grid Cells             17500


 Physical Dimensions, Mesh     1

   Length (m)                       0.500
   Width  (m)                       0.136
   Height (m)                       0.250
   Initial Time Step (s)            0.031

 Grid Dimensions, Mesh     2

   Cells in the X Direction            50
   Cells in the Y Direction            14
   Cells in the Z Direction            25
   Number of Grid Cells             17500


 Physical Dimensions, Mesh     2

   Length (m)                       0.500
   Width  (m)                       0.136
   Height (m)                       0.250
   Initial Time Step (s)            0.031

 Grid Dimensions, Mesh     3

   Cells in the X Direction            50
   Cells in the Y Direction            14
   Cells in the Z Direction            25
   Number of Grid Cells             17500


 Physical Dimensions, Mesh     3

   Length (m)                       0.500
   Width  (m)                       0.136
   Height (m)                       0.250
   Initial Time Step (s)            0.031

 Grid Dimensions, Mesh     4

   Cells in the X Direction            50
   Cells in the Y Direction            14
   Cells in the Z Direction            25
   Number of Grid Cells             17500


 Physical Dimensions, Mesh     4

   Length (m)                       0.500
   Width  (m)                       0.136
   Height (m)                       0.250
   Initial Time Step (s)            0.031

 Grid Dimensions, Mesh     5

   Cells in the X Direction            50
   Cells in the Y Direction            14
   Cells in the Z Direction            25
   Number of Grid Cells             17500


 Physical Dimensions, Mesh     5

   Length (m)                       0.500
   Width  (m)                       0.136
   Height (m)                       0.250
   Initial Time Step (s)            0.031

 Grid Dimensions, Mesh     6

   Cells in the X Direction            50
   Cells in the Y Direction            14
   Cells in the Z Direction            25
   Number of Grid Cells             17500


 Physical Dimensions, Mesh     6

   Length (m)                       0.500
   Width  (m)                       0.136
   Height (m)                       0.250
   Initial Time Step (s)            0.031

 Grid Dimensions, Mesh     7

   Cells in the X Direction            50
   Cells in the Y Direction            14
   Cells in the Z Direction            25
   Number of Grid Cells             17500


 Physical Dimensions, Mesh     7

   Length (m)                       0.500
   Width  (m)                       0.136
   Height (m)                       0.250
   Initial Time Step (s)            0.031

 Grid Dimensions, Mesh     8

   Cells in the X Direction            50
   Cells in the Y Direction            14
   Cells in the Z Direction            25
   Number of Grid Cells             17500


 Physical Dimensions, Mesh     8

   Length (m)                       0.500
   Width  (m)                       0.136
   Height (m)                       0.250
   Initial Time Step (s)            0.031

 Grid Dimensions, Mesh     9

   Cells in the X Direction            50
   Cells in the Y Direction            14
   Cells in the Z Direction            25
   Number of Grid Cells             17500


 Physical Dimensions, Mesh     9

   Length (m)                       0.500
   Width  (m)                       0.136
   Height (m)                       0.250
   Initial Time Step (s)            0.031

 Grid Dimensions, Mesh    10

   Cells in the X Direction            50
   Cells in the Y Direction            14
   Cells in the Z Direction            25
   Number of Grid Cells             17500


 Physical Dimensions, Mesh    10

   Length (m)                       0.500
   Width  (m)                       0.136
   Height (m)                       0.250
   Initial Time Step (s)            0.031

 Grid Dimensions, Mesh    11

   Cells in the X Direction            50
   Cells in the Y Direction            14
   Cells in the Z Direction            25
   Number of Grid Cells             17500


 Physical Dimensions, Mesh    11

   Length (m)                       0.500
   Width  (m)                       0.136
   Height (m)                       0.250
   Initial Time Step (s)            0.031

 Grid Dimensions, Mesh    12

   Cells in the X Direction            50
   Cells in the Y Direction            14
   Cells in the Z Direction            25
   Number of Grid Cells             17500


 Physical Dimensions, Mesh    12

   Length (m)                       0.500
   Width  (m)                       0.136
   Height (m)                       0.250
   Initial Time Step (s)            0.031

 Grid Dimensions, Mesh    13

   Cells in the X Direction            50
   Cells in the Y Direction            14
   Cells in the Z Direction            25
   Number of Grid Cells             17500


 Physical Dimensions, Mesh    13

   Length (m)                       0.500
   Width  (m)                       0.136
   Height (m)                       0.250
   Initial Time Step (s)            0.031

 Grid Dimensions, Mesh    14

   Cells in the X Direction            50
   Cells in the Y Direction            14
   Cells in the Z Direction            25
   Number of Grid Cells             17500


 Physical Dimensions, Mesh    14

   Length (m)                       0.500
   Width  (m)                       0.136
   Height (m)                       0.250
   Initial Time Step (s)            0.031

 Grid Dimensions, Mesh    15

   Cells in the X Direction            50
   Cells in the Y Direction            14
   Cells in the Z Direction            25
   Number of Grid Cells             17500


 Physical Dimensions, Mesh    15

   Length (m)                       0.500
   Width  (m)                       0.136
   Height (m)                       0.250
   Initial Time Step (s)            0.031

 Grid Dimensions, Mesh    16

   Cells in the X Direction            50
   Cells in the Y Direction            14
   Cells in the Z Direction            25
   Number of Grid Cells             17500


 Physical Dimensions, Mesh    16

   Length (m)                       0.500
   Width  (m)                       0.136
   Height (m)                       0.250
   Initial Time Step (s)            0.031

 Grid Dimensions, Mesh    17

   Cells in the X Direction            50
   Cells in the Y Direction            14
   Cells in the Z Direction            25
   Number of Grid Cells             17500


 Physical Dimensions, Mesh    17

   Length (m)                       0.500
   Width  (m)                       0.136
   Height (m)                       0.250
   Initial Time Step (s)            0.031

 Grid Dimensions, Mesh    18

   Cells in the X Direction            50
   Cells in the Y Direction            14
   Cells in the Z Direction            25
   Number of Grid Cells             17500


 Physical Dimensions, Mesh    18

   Length (m)                       0.500
   Width  (m)                       0.136
   Height (m)                       0.250
   Initial Time Step (s)            0.031

 Grid Dimensions, Mesh    19

   Cells in the X Direction            50
   Cells in the Y Direction            14
   Cells in the Z Direction            25
   Number of Grid Cells             17500


 Physical Dimensions, Mesh    19

   Length (m)                       0.500
   Width  (m)                       0.136
   Height (m)                       0.250
   Initial Time Step (s)            0.031

 Grid Dimensions, Mesh    20

   Cells in the X Direction            50
   Cells in the Y Direction            14
   Cells in the Z Direction            25
   Number of Grid Cells             17500


 Physical Dimensions, Mesh    20

   Length (m)                       0.500
   Width  (m)                       0.136
   Height (m)                       0.250
   Initial Time Step (s)            0.031

 Grid Dimensions, Mesh    21

   Cells in the X Direction            50
   Cells in the Y Direction            14
   Cells in the Z Direction            25
   Number of Grid Cells             17500


 Physical Dimensions, Mesh    21

   Length (m)                       0.500
   Width  (m)                       0.136
   Height (m)                       0.250
   Initial Time Step (s)            0.031

 Grid Dimensions, Mesh    22

   Cells in the X Direction            50
   Cells in the Y Direction            14
   Cells in the Z Direction            25
   Number of Grid Cells             17500


 Physical Dimensions, Mesh    22

   Length (m)                       0.500
   Width  (m)                       0.136
   Height (m)                       0.250
   Initial Time Step (s)            0.031

 Grid Dimensions, Mesh    23

   Cells in the X Direction            50
   Cells in the Y Direction            14
   Cells in the Z Direction            25
   Number of Grid Cells             17500


 Physical Dimensions, Mesh    23

   Length (m)                       0.500
   Width  (m)                       0.136
   Height (m)                       0.250
   Initial Time Step (s)            0.031

 Grid Dimensions, Mesh    24

   Cells in the X Direction            50
   Cells in the Y Direction            14
   Cells in the Z Direction            25
   Number of Grid Cells             17500


 Physical Dimensions, Mesh    24

   Length (m)                       0.500
   Width  (m)                       0.136
   Height (m)                       0.250
   Initial Time Step (s)            0.031

 Grid Dimensions, Mesh    25

   Cells in the X Direction            50
   Cells in the Y Direction            14
   Cells in the Z Direction            25
   Number of Grid Cells             17500


 Physical Dimensions, Mesh    25

   Length (m)                       0.500
   Width  (m)                       0.136
   Height (m)                       0.250
   Initial Time Step (s)            0.031

 Grid Dimensions, Mesh    26

   Cells in the X Direction            50
   Cells in the Y Direction            14
   Cells in the Z Direction            25
   Number of Grid Cells             17500


 Physical Dimensions, Mesh    26

   Length (m)                       0.500
   Width  (m)                       0.136
   Height (m)                       0.250
   Initial Time Step (s)            0.031

 Grid Dimensions, Mesh    27

   Cells in the X Direction            50
   Cells in the Y Direction            14
   Cells in the Z Direction            25
   Number of Grid Cells             17500


 Physical Dimensions, Mesh    27

   Length (m)                       0.500
   Width  (m)                       0.136
   Height (m)                       0.250
   Initial Time Step (s)            0.031

 Grid Dimensions, Mesh    28

   Cells in the X Direction            50
   Cells in the Y Direction            14
   Cells in the Z Direction            25
   Number of Grid Cells             17500


 Physical Dimensions, Mesh    28

   Length (m)                       0.500
   Width  (m)                       0.136
   Height (m)                       0.250
   Initial Time Step (s)            0.031

 Grid Dimensions, Mesh    29

   Cells in the X Direction            50
   Cells in the Y Direction            14
   Cells in the Z Direction            25
   Number of Grid Cells             17500


 Physical Dimensions, Mesh    29

   Length (m)                       0.500
   Width  (m)                       0.136
   Height (m)                       0.250
   Initial Time Step (s)            0.031

 Grid Dimensions, Mesh    30

   Cells in the X Direction            50
   Cells in the Y Direction            14
   Cells in the Z Direction            25
   Number of Grid Cells             17500


 Physical Dimensions, Mesh    30

   Length (m)                       0.500
   Width  (m)                       0.136
   Height (m)                       0.250
   Initial Time Step (s)            0.031

Total Number of Grid Cells        525000


 Miscellaneous Parameters

   Simulation Start Time (s)          0.0
   Simulation End Time (s)            5.0
   LES Calculation
   Eddy Viscosity:           Deardorff Model (C_DEARDORFF = 0.10)
   Near-wall Eddy Viscosity: WALE Model (C_WALE = 0.60)
   Turbulent Prandtl Number:         0.50
   Turbulent Schmidt Number:         0.50
   Background Pressure (Pa):    101325.00
   Ambient Temperature (C):         20.00


 Background Stratification

      Z (m)     P_0 (Pa)    TMP_0 (C)
   ------------------------------------
        0.24    101322.13     20.00
        0.23    101322.24     20.00
        0.23    101322.36     20.00
        0.21    101322.48     20.00
        0.21    101322.60     20.00
        0.20    101322.71     20.00
        0.18    101322.83     20.00
        0.17    101322.95     20.00
        0.17    101323.07     20.00
        0.15    101323.18     20.00
        0.15    101323.30     20.00
        0.14    101323.42     20.00
        0.12    101323.53     20.00
        0.11    101323.65     20.00
        0.11    101323.77     20.00
        0.10    101323.89     20.00
        0.08    101324.00     20.00
        0.08    101324.12     20.00
        0.07    101324.24     20.00
        0.06    101324.35     20.00
        0.04    101324.47     20.00
        0.04    101324.59     20.00
        0.03    101324.71     20.00
        0.01    101324.82     20.00
        0.01    101324.94     20.00


 Mass Fraction Transformation Matrix to Convert Species Mixtures (Columns) to Primitive Species (Rows)

                         AIR       PROPANE   PRODUCTS
   PROPANE               0.000000  1.000000  0.000000
   NITROGEN              0.762470  0.000000  0.716510
   OXYGEN                0.230997  0.000000  0.000000
   CARBON DIOXIDE        0.000591  0.000000  0.178848
   WATER VAPOR           0.005941  0.000000  0.104039
   CARBON MONOXIDE       0.000000  0.000000  0.000000
   SOOT                  0.000000  0.000000  0.000603
   HYDROGEN              0.000000  0.000000  0.000000
   HYDROGEN CYANIDE      0.000000  0.000000  0.000000


 Primitive Species Information

   PROPANE
   Gas Species
   Molecular Weight (g/mol)            44.09562
   Ambient Density (kg/m^3)            1.833
   Enthalpy of Formation (J/kg)       -2.37E+06

   NITROGEN
   Gas Species
   Molecular Weight (g/mol)            28.01340
   Ambient Density (kg/m^3)            1.165
   Enthalpy of Formation (J/kg)        0.00E+00

   OXYGEN
   Gas Species
   Molecular Weight (g/mol)            31.99880
   Ambient Density (kg/m^3)            1.330
   Enthalpy of Formation (J/kg)        0.00E+00

   CARBON DIOXIDE
   Gas Species
   Molecular Weight (g/mol)            44.00950
   Ambient Density (kg/m^3)            1.830
   Enthalpy of Formation (J/kg)       -8.94E+06

   WATER VAPOR
   Gas Species
   Molecular Weight (g/mol)            18.01528
   Ambient Density (kg/m^3)            0.749
   Enthalpy of Formation (J/kg)       -1.34E+07

   CARBON MONOXIDE
   Gas Species
   Molecular Weight (g/mol)            28.01010
   Ambient Density (kg/m^3)            1.164
   Enthalpy of Formation (J/kg)       -3.95E+06

   SOOT
   Gas Species
   Molecular Weight (g/mol)            10.91042
   Ambient Density (kg/m^3)            0.454
   Enthalpy of Formation (J/kg)        0.00E+00

   HYDROGEN
   Gas Species
   Molecular Weight (g/mol)             2.01588
   Ambient Density (kg/m^3)            0.084
   Enthalpy of Formation (J/kg)        0.00E+00

   HYDROGEN CYANIDE
   Gas Species
   Molecular Weight (g/mol)            27.02534
   Ambient Density (kg/m^3)            1.123
   Enthalpy of Formation (J/kg)        4.92E+06


 Tracked (Lumped) Species Information

   AIR
   Molecular Weight (g/mol)            28.75199
   Ambient Density (kg/m^3)            1.195
   Initial Mass Fraction               1.000
   Enthalpy of Formation (J/kg)     -8.50E+04

   Sub Species                    Mass Fraction     Mole Fraction
   NITROGEN                       7.624701E-01      7.825730E-01
   OXYGEN                         2.309974E-01      2.075589E-01
   CARBON DIOXIDE                 5.914651E-04      3.864120E-04
   WATER VAPOR                    5.940984E-03      9.481679E-03
 
     Viscosity (kg/m/s) Ambient,  293 K:  1.80E-05
                                  500 K:  2.61E-05
                                 1000 K:  4.13E-05
                                 1500 K:  5.37E-05
   Therm. Cond. (W/m/K) Ambient,  293 K:  2.56E-02
                                  500 K:  3.81E-02
                                 1000 K:  6.69E-02
                                 1500 K:  9.25E-02
        Enthalpy (J/kg) Ambient,  293 K: -9.01E+04
                                  500 K:  1.22E+05
                                 1000 K:  6.72E+05
                                 1500 K:  1.27E+06
    Spec. Heat (J/kg/K) Ambient,  293 K:  1.02E+03
                                  500 K:  1.04E+03
                                 1000 K:  1.16E+03
                                 1500 K:  1.23E+03
   Diff. Coeff. (m^2/s) Ambient,  293 K:  1.99E-05
                                  500 K:  4.96E-05
                                 1000 K:  1.58E-04
                                 1500 K:  3.09E-04

   PROPANE
   Molecular Weight (g/mol)            44.09562
   Ambient Density (kg/m^3)            1.833
   Initial Mass Fraction               0.000
   Enthalpy of Formation (J/kg)     -2.37E+06

   Sub Species                    Mass Fraction     Mole Fraction
   PROPANE                        1.000000E+00      1.000000E+00
 
     Viscosity (kg/m/s) Ambient,  293 K:  8.08E-06
                                  500 K:  1.31E-05
                                 1000 K:  2.23E-05
                                 1500 K:  2.96E-05
   Therm. Cond. (W/m/K) Ambient,  293 K:  1.66E-02
                                  500 K:  4.18E-02
                                 1000 K:  1.11E-01
                                 1500 K:  1.72E-01
        Enthalpy (J/kg) Ambient,  293 K: -2.38E+06
                                  500 K: -1.95E+06
                                 1000 K: -2.77E+05
                                 1500 K:  1.90E+06
    Spec. Heat (J/kg/K) Ambient,  293 K:  1.65E+03
                                  500 K:  2.55E+03
                                 1000 K:  3.96E+03
                                 1500 K:  4.67E+03
   Diff. Coeff. (m^2/s) Ambient,  293 K:  1.11E-05
                                  500 K:  2.86E-05
                                 1000 K:  9.32E-05
                                 1500 K:  1.83E-04

   PRODUCTS
   Molecular Weight (g/mol)            28.19160
   Ambient Density (kg/m^3)            1.172
   Initial Mass Fraction               0.000
   Enthalpy of Formation (J/kg)     -3.00E+06

   Sub Species                    Mass Fraction     Mole Fraction
   NITROGEN                       7.165100E-01      7.210680E-01
   CARBON DIOXIDE                 1.788479E-01      1.145664E-01
   WATER VAPOR                    1.040393E-01      1.628081E-01
   CARBON MONOXIDE                0.000000E+00      0.000000E+00
   SOOT                           6.027786E-04      1.557528E-03
   HYDROGEN CYANIDE               0.000000E+00      0.000000E+00
 
     Viscosity (kg/m/s) Ambient,  293 K:  1.61E-05
                                  500 K:  2.39E-05
                                 1000 K:  3.89E-05
                                 1500 K:  5.14E-05
   Therm. Cond. (W/m/K) Ambient,  293 K:  2.34E-02
                                  500 K:  3.62E-02
                                 1000 K:  6.71E-02
                                 1500 K:  9.63E-02
        Enthalpy (J/kg) Ambient,  293 K: -3.00E+06
                                  500 K: -2.77E+06
                                 1000 K: -2.16E+06
                                 1500 K: -1.48E+06
    Spec. Heat (J/kg/K) Ambient,  293 K:  1.09E+03
                                  500 K:  1.14E+03
                                 1000 K:  1.30E+03
                                 1500 K:  1.40E+03
   Diff. Coeff. (m^2/s) Ambient,  293 K:  1.95E-05
                                  500 K:  4.95E-05
                                 1000 K:  1.60E-04
                                 1500 K:  3.15E-04


 Gas Phase Reaction Information

   Fuel                                           Heat of Combustion (kJ/kg)
   PROPANE                                                        45998.9362

   Stoichiometry

   Primitive Species Stoich. Coeff.
   Species ID                                                          Molar
   PROPANE                                                         -1.000000
   OXYGEN                                                          -4.962615
   CARBON DIOXIDE                                                   2.963626
   WATER VAPOR                                                      3.997979
   SOOT                                                             0.040416

   Tracked (Lumped) Species Stoich. Coeff.
   Species ID                                             Molar         Mass
   AIR                                               -23.909431   -15.589840
   PROPANE                                            -1.000000    -1.000000
   PRODUCTS                                           25.948837    16.589840

   Reaction Kinetics

   Arrhenius Parameters
   Pre-exponential:    Infinite
   Activation Energy:  N/A

   ODE Solver:  EXPLICIT EULER
   Extinction Model:  EXTINCTION 2
   Auto-Ignition Temperature (K):       0.0
   Critical Flame Temperature (K):   1720.2


 Material Information

   1 Steel                                                       
     Emissivity                      0.900
     Density (kg/m3)                7800.0
     Specific Heat (kJ/kg/K)      4.50E-01
     Conductivity (W/m/K)          5.00E+01


 Surface Conditions

   0 INERT

   1 FAN
     Normal Velocity (m/s)        -1.000
     AIR Mass Fraction         1.000

   2 Tunnel Wall (DEFAULT)
     Material List
          1  Steel
     Layer  1
        Thickness   (m):  0.00125
        Density (kg/m3):  7800.00
        Steel, Mass fraction:    1.00
     Total surface density     9.750 kg/m2
     Reaction products considered from the first  0.50 layers.
     Solid Phase Node, Layer, Coordinates(m):
                    0      1       0.0000000
                    1      1       0.0012500
     Exposed Backing

   3 BURNER
     HRR Per Unit Area (kW/m2)       3400.0
     PROPANE Mass Flux (kg/s/m2)   7.39E-02

   4 OPEN
     Passive Vent to Atmosphere

   5 MIRROR
     Symmetry Plane

   6 INTERPOLATED

   7 PERIODIC

   8 HVAC

   9 MASSLESS TRACER

  10 DROPLET

  11 EVACUATION_OUTFLOW
     Normal Velocity (m/s)         0.000

  12 MASSLESS TARGET

  13 PERIODIC FLOW ONLY


 Cut-off Density and Temperature

    Minimum Temperature:   -10.0 C
    Maximum Temperature:  2726.8 C
    Minimum Density:  1.195E-01 kg/m3
    Maximum Density:  4.084E+00 kg/m3


 Device Coordinates

     1 Coords:      4.999900      0.000000      0.245000, Make: null, ID: T1, Quantity: TEMPERATURE
     2 Coords:      5.010050      0.000000      0.245000, Make: null, ID: T1, Quantity: TEMPERATURE
     3 Coords:      5.020101      0.000000      0.245000, Make: null, ID: T1, Quantity: TEMPERATURE
     4 Coords:      5.030151      0.000000      0.245000, Make: null, ID: T1, Quantity: TEMPERATURE
     5 Coords:      5.040201      0.000000      0.245000, Make: null, ID: T1, Quantity: TEMPERATURE
     6 Coords:      5.050251      0.000000      0.245000, Make: null, ID: T1, Quantity: TEMPERATURE
     7 Coords:      5.060302      0.000000      0.245000, Make: null, ID: T1, Quantity: TEMPERATURE
     8 Coords:      5.070352      0.000000      0.245000, Make: null, ID: T1, Quantity: TEMPERATURE
     9 Coords:      5.080402      0.000000      0.245000, Make: null, ID: T1, Quantity: TEMPERATURE
    10 Coords:      5.090452      0.000000      0.245000, Make: null, ID: T1, Quantity: TEMPERATURE
    11 Coords:      5.100503      0.000000      0.245000, Make: null, ID: T1, Quantity: TEMPERATURE
    12 Coords:      5.110553      0.000000      0.245000, Make: null, ID: T1, Quantity: TEMPERATURE
    13 Coords:      5.120603      0.000000      0.245000, Make: null, ID: T1, Quantity: TEMPERATURE
    14 Coords:      5.130653      0.000000      0.245000, Make: null, ID: T1, Quantity: TEMPERATURE
    15 Coords:      5.140704      0.000000      0.245000, Make: null, ID: T1, Quantity: TEMPERATURE
    16 Coords:      5.150754      0.000000      0.245000, Make: null, ID: T1, Quantity: TEMPERATURE
    17 Coords:      5.160804      0.000000      0.245000, Make: null, ID: T1, Quantity: TEMPERATURE
    18 Coords:      5.170854      0.000000      0.245000, Make: null, ID: T1, Quantity: TEMPERATURE
    19 Coords:      5.180905      0.000000      0.245000, Make: null, ID: T1, Quantity: TEMPERATURE
    20 Coords:      5.190955      0.000000      0.245000, Make: null, ID: T1, Quantity: TEMPERATURE
    21 Coords:      5.201005      0.000000      0.245000, Make: null, ID: T1, Quantity: TEMPERATURE
    22 Coords:      5.211055      0.000000      0.245000, Make: null, ID: T1, Quantity: TEMPERATURE
    23 Coords:      5.221106      0.000000      0.245000, Make: null, ID: T1, Quantity: TEMPERATURE
    24 Coords:      5.231156      0.000000      0.245000, Make: null, ID: T1, Quantity: TEMPERATURE
    25 Coords:      5.241206      0.000000      0.245000, Make: null, ID: T1, Quantity: TEMPERATURE
    26 Coords:      5.251256      0.000000      0.245000, Make: null, ID: T1, Quantity: TEMPERATURE
    27 Coords:      5.261307      0.000000      0.245000, Make: null, ID: T1, Quantity: TEMPERATURE
    28 Coords:      5.271357      0.000000      0.245000, Make: null, ID: T1, Quantity: TEMPERATURE
    29 Coords:      5.281407      0.000000      0.245000, Make: null, ID: T1, Quantity: TEMPERATURE
    30 Coords:      5.291457      0.000000      0.245000, Make: null, ID: T1, Quantity: TEMPERATURE
    31 Coords:      5.301508      0.000000      0.245000, Make: null, ID: T1, Quantity: TEMPERATURE
    32 Coords:      5.311558      0.000000      0.245000, Make: null, ID: T1, Quantity: TEMPERATURE
    33 Coords:      5.321608      0.000000      0.245000, Make: null, ID: T1, Quantity: TEMPERATURE
    34 Coords:      5.331658      0.000000      0.245000, Make: null, ID: T1, Quantity: TEMPERATURE
    35 Coords:      5.341709      0.000000      0.245000, Make: null, ID: T1, Quantity: TEMPERATURE
    36 Coords:      5.351759      0.000000      0.245000, Make: null, ID: T1, Quantity: TEMPERATURE
    37 Coords:      5.361809      0.000000      0.245000, Make: null, ID: T1, Quantity: TEMPERATURE
    38 Coords:      5.371859      0.000000      0.245000, Make: null, ID: T1, Quantity: TEMPERATURE
    39 Coords:      5.381910      0.000000      0.245000, Make: null, ID: T1, Quantity: TEMPERATURE
    40 Coords:      5.391960      0.000000      0.245000, Make: null, ID: T1, Quantity: TEMPERATURE
    41 Coords:      5.402010      0.000000      0.245000, Make: null, ID: T1, Quantity: TEMPERATURE
    42 Coords:      5.412060      0.000000      0.245000, Make: null, ID: T1, Quantity: TEMPERATURE
    43 Coords:      5.422111      0.000000      0.245000, Make: null, ID: T1, Quantity: TEMPERATURE
    44 Coords:      5.432161      0.000000      0.245000, Make: null, ID: T1, Quantity: TEMPERATURE
    45 Coords:      5.442211      0.000000      0.245000, Make: null, ID: T1, Quantity: TEMPERATURE
    46 Coords:      5.452261      0.000000      0.245000, Make: null, ID: T1, Quantity: TEMPERATURE
    47 Coords:      5.462312      0.000000      0.245000, Make: null, ID: T1, Quantity: TEMPERATURE
    48 Coords:      5.472362      0.000000      0.245000, Make: null, ID: T1, Quantity: TEMPERATURE
    49 Coords:      5.482412      0.000000      0.245000, Make: null, ID: T1, Quantity: TEMPERATURE
    50 Coords:      5.492462      0.000000      0.245000, Make: null, ID: T1, Quantity: TEMPERATURE
    51 Coords:      5.502513      0.000000      0.245000, Make: null, ID: T1, Quantity: TEMPERATURE
    52 Coords:      5.512563      0.000000      0.245000, Make: null, ID: T1, Quantity: TEMPERATURE
    53 Coords:      5.522613      0.000000      0.245000, Make: null, ID: T1, Quantity: TEMPERATURE
    54 Coords:      5.532663      0.000000      0.245000, Make: null, ID: T1, Quantity: TEMPERATURE
    55 Coords:      5.542714      0.000000      0.245000, Make: null, ID: T1, Quantity: TEMPERATURE
    56 Coords:      5.552764      0.000000      0.245000, Make: null, ID: T1, Quantity: TEMPERATURE
    57 Coords:      5.562814      0.000000      0.245000, Make: null, ID: T1, Quantity: TEMPERATURE
    58 Coords:      5.572864      0.000000      0.245000, Make: null, ID: T1, Quantity: TEMPERATURE
    59 Coords:      5.582915      0.000000      0.245000, Make: null, ID: T1, Quantity: TEMPERATURE
    60 Coords:      5.592965      0.000000      0.245000, Make: null, ID: T1, Quantity: TEMPERATURE
    61 Coords:      5.603015      0.000000      0.245000, Make: null, ID: T1, Quantity: TEMPERATURE
    62 Coords:      5.613065      0.000000      0.245000, Make: null, ID: T1, Quantity: TEMPERATURE
    63 Coords:      5.623116      0.000000      0.245000, Make: null, ID: T1, Quantity: TEMPERATURE
    64 Coords:      5.633166      0.000000      0.245000, Make: null, ID: T1, Quantity: TEMPERATURE
    65 Coords:      5.643216      0.000000      0.245000, Make: null, ID: T1, Quantity: TEMPERATURE
    66 Coords:      5.653266      0.000000      0.245000, Make: null, ID: T1, Quantity: TEMPERATURE
    67 Coords:      5.663317      0.000000      0.245000, Make: null, ID: T1, Quantity: TEMPERATURE
    68 Coords:      5.673367      0.000000      0.245000, Make: null, ID: T1, Quantity: TEMPERATURE
    69 Coords:      5.683417      0.000000      0.245000, Make: null, ID: T1, Quantity: TEMPERATURE
    70 Coords:      5.693467      0.000000      0.245000, Make: null, ID: T1, Quantity: TEMPERATURE
    71 Coords:      5.703518      0.000000      0.245000, Make: null, ID: T1, Quantity: TEMPERATURE
    72 Coords:      5.713568      0.000000      0.245000, Make: null, ID: T1, Quantity: TEMPERATURE
    73 Coords:      5.723618      0.000000      0.245000, Make: null, ID: T1, Quantity: TEMPERATURE
    74 Coords:      5.733668      0.000000      0.245000, Make: null, ID: T1, Quantity: TEMPERATURE
    75 Coords:      5.743719      0.000000      0.245000, Make: null, ID: T1, Quantity: TEMPERATURE
    76 Coords:      5.753769      0.000000      0.245000, Make: null, ID: T1, Quantity: TEMPERATURE
    77 Coords:      5.763819      0.000000      0.245000, Make: null, ID: T1, Quantity: TEMPERATURE
    78 Coords:      5.773869      0.000000      0.245000, Make: null, ID: T1, Quantity: TEMPERATURE
    79 Coords:      5.783920      0.000000      0.245000, Make: null, ID: T1, Quantity: TEMPERATURE
    80 Coords:      5.793970      0.000000      0.245000, Make: null, ID: T1, Quantity: TEMPERATURE
    81 Coords:      5.804020      0.000000      0.245000, Make: null, ID: T1, Quantity: TEMPERATURE
    82 Coords:      5.814070      0.000000      0.245000, Make: null, ID: T1, Quantity: TEMPERATURE
    83 Coords:      5.824121      0.000000      0.245000, Make: null, ID: T1, Quantity: TEMPERATURE
    84 Coords:      5.834171      0.000000      0.245000, Make: null, ID: T1, Quantity: TEMPERATURE
    85 Coords:      5.844221      0.000000      0.245000, Make: null, ID: T1, Quantity: TEMPERATURE
    86 Coords:      5.854271      0.000000      0.245000, Make: null, ID: T1, Quantity: TEMPERATURE
    87 Coords:      5.864322      0.000000      0.245000, Make: null, ID: T1, Quantity: TEMPERATURE
    88 Coords:      5.874372      0.000000      0.245000, Make: null, ID: T1, Quantity: TEMPERATURE
    89 Coords:      5.884422      0.000000      0.245000, Make: null, ID: T1, Quantity: TEMPERATURE
    90 Coords:      5.894472      0.000000      0.245000, Make: null, ID: T1, Quantity: TEMPERATURE
    91 Coords:      5.904523      0.000000      0.245000, Make: null, ID: T1, Quantity: TEMPERATURE
    92 Coords:      5.914573      0.000000      0.245000, Make: null, ID: T1, Quantity: TEMPERATURE
    93 Coords:      5.924623      0.000000      0.245000, Make: null, ID: T1, Quantity: TEMPERATURE
    94 Coords:      5.934673      0.000000      0.245000, Make: null, ID: T1, Quantity: TEMPERATURE
    95 Coords:      5.944724      0.000000      0.245000, Make: null, ID: T1, Quantity: TEMPERATURE
    96 Coords:      5.954774      0.000000      0.245000, Make: null, ID: T1, Quantity: TEMPERATURE
    97 Coords:      5.964824      0.000000      0.245000, Make: null, ID: T1, Quantity: TEMPERATURE
    98 Coords:      5.974874      0.000000      0.245000, Make: null, ID: T1, Quantity: TEMPERATURE
    99 Coords:      5.984925      0.000000      0.245000, Make: null, ID: T1, Quantity: TEMPERATURE
   100 Coords:      5.994975      0.000000      0.245000, Make: null, ID: T1, Quantity: TEMPERATURE
   101 Coords:      6.005025      0.000000      0.245000, Make: null, ID: T1, Quantity: TEMPERATURE
   102 Coords:      6.015075      0.000000      0.245000, Make: null, ID: T1, Quantity: TEMPERATURE
   103 Coords:      6.025126      0.000000      0.245000, Make: null, ID: T1, Quantity: TEMPERATURE
   104 Coords:      6.035176      0.000000      0.245000, Make: null, ID: T1, Quantity: TEMPERATURE
   105 Coords:      6.045226      0.000000      0.245000, Make: null, ID: T1, Quantity: TEMPERATURE
   106 Coords:      6.055276      0.000000      0.245000, Make: null, ID: T1, Quantity: TEMPERATURE
   107 Coords:      6.065327      0.000000      0.245000, Make: null, ID: T1, Quantity: TEMPERATURE
   108 Coords:      6.075377      0.000000      0.245000, Make: null, ID: T1, Quantity: TEMPERATURE
   109 Coords:      6.085427      0.000000      0.245000, Make: null, ID: T1, Quantity: TEMPERATURE
   110 Coords:      6.095477      0.000000      0.245000, Make: null, ID: T1, Quantity: TEMPERATURE
   111 Coords:      6.105528      0.000000      0.245000, Make: null, ID: T1, Quantity: TEMPERATURE
   112 Coords:      6.115578      0.000000      0.245000, Make: null, ID: T1, Quantity: TEMPERATURE
   113 Coords:      6.125628      0.000000      0.245000, Make: null, ID: T1, Quantity: TEMPERATURE
   114 Coords:      6.135678      0.000000      0.245000, Make: null, ID: T1, Quantity: TEMPERATURE
   115 Coords:      6.145729      0.000000      0.245000, Make: null, ID: T1, Quantity: TEMPERATURE
   116 Coords:      6.155779      0.000000      0.245000, Make: null, ID: T1, Quantity: TEMPERATURE
   117 Coords:      6.165829      0.000000      0.245000, Make: null, ID: T1, Quantity: TEMPERATURE
   118 Coords:      6.175879      0.000000      0.245000, Make: null, ID: T1, Quantity: TEMPERATURE
   119 Coords:      6.185930      0.000000      0.245000, Make: null, ID: T1, Quantity: TEMPERATURE
   120 Coords:      6.195980      0.000000      0.245000, Make: null, ID: T1, Quantity: TEMPERATURE
   121 Coords:      6.206030      0.000000      0.245000, Make: null, ID: T1, Quantity: TEMPERATURE
   122 Coords:      6.216080      0.000000      0.245000, Make: null, ID: T1, Quantity: TEMPERATURE
   123 Coords:      6.226131      0.000000      0.245000, Make: null, ID: T1, Quantity: TEMPERATURE
   124 Coords:      6.236181      0.000000      0.245000, Make: null, ID: T1, Quantity: TEMPERATURE
   125 Coords:      6.246231      0.000000      0.245000, Make: null, ID: T1, Quantity: TEMPERATURE
   126 Coords:      6.256281      0.000000      0.245000, Make: null, ID: T1, Quantity: TEMPERATURE
   127 Coords:      6.266332      0.000000      0.245000, Make: null, ID: T1, Quantity: TEMPERATURE
   128 Coords:      6.276382      0.000000      0.245000, Make: null, ID: T1, Quantity: TEMPERATURE
   129 Coords:      6.286432      0.000000      0.245000, Make: null, ID: T1, Quantity: TEMPERATURE
   130 Coords:      6.296482      0.000000      0.245000, Make: null, ID: T1, Quantity: TEMPERATURE
   131 Coords:      6.306533      0.000000      0.245000, Make: null, ID: T1, Quantity: TEMPERATURE
   132 Coords:      6.316583      0.000000      0.245000, Make: null, ID: T1, Quantity: TEMPERATURE
   133 Coords:      6.326633      0.000000      0.245000, Make: null, ID: T1, Quantity: TEMPERATURE
   134 Coords:      6.336683      0.000000      0.245000, Make: null, ID: T1, Quantity: TEMPERATURE
   135 Coords:      6.346734      0.000000      0.245000, Make: null, ID: T1, Quantity: TEMPERATURE
   136 Coords:      6.356784      0.000000      0.245000, Make: null, ID: T1, Quantity: TEMPERATURE
   137 Coords:      6.366834      0.000000      0.245000, Make: null, ID: T1, Quantity: TEMPERATURE
   138 Coords:      6.376884      0.000000      0.245000, Make: null, ID: T1, Quantity: TEMPERATURE
   139 Coords:      6.386935      0.000000      0.245000, Make: null, ID: T1, Quantity: TEMPERATURE
   140 Coords:      6.396985      0.000000      0.245000, Make: null, ID: T1, Quantity: TEMPERATURE
   141 Coords:      6.407035      0.000000      0.245000, Make: null, ID: T1, Quantity: TEMPERATURE
   142 Coords:      6.417085      0.000000      0.245000, Make: null, ID: T1, Quantity: TEMPERATURE
   143 Coords:      6.427136      0.000000      0.245000, Make: null, ID: T1, Quantity: TEMPERATURE
   144 Coords:      6.437186      0.000000      0.245000, Make: null, ID: T1, Quantity: TEMPERATURE
   145 Coords:      6.447236      0.000000      0.245000, Make: null, ID: T1, Quantity: TEMPERATURE
   146 Coords:      6.457286      0.000000      0.245000, Make: null, ID: T1, Quantity: TEMPERATURE
   147 Coords:      6.467337      0.000000      0.245000, Make: null, ID: T1, Quantity: TEMPERATURE
   148 Coords:      6.477387      0.000000      0.245000, Make: null, ID: T1, Quantity: TEMPERATURE
   149 Coords:      6.487437      0.000000      0.245000, Make: null, ID: T1, Quantity: TEMPERATURE
   150 Coords:      6.497487      0.000000      0.245000, Make: null, ID: T1, Quantity: TEMPERATURE
   151 Coords:      6.507538      0.000000      0.245000, Make: null, ID: T1, Quantity: TEMPERATURE
   152 Coords:      6.517588      0.000000      0.245000, Make: null, ID: T1, Quantity: TEMPERATURE
   153 Coords:      6.527638      0.000000      0.245000, Make: null, ID: T1, Quantity: TEMPERATURE
   154 Coords:      6.537688      0.000000      0.245000, Make: null, ID: T1, Quantity: TEMPERATURE
   155 Coords:      6.547739      0.000000      0.245000, Make: null, ID: T1, Quantity: TEMPERATURE
   156 Coords:      6.557789      0.000000      0.245000, Make: null, ID: T1, Quantity: TEMPERATURE
   157 Coords:      6.567839      0.000000      0.245000, Make: null, ID: T1, Quantity: TEMPERATURE
   158 Coords:      6.577889      0.000000      0.245000, Make: null, ID: T1, Quantity: TEMPERATURE
   159 Coords:      6.587940      0.000000      0.245000, Make: null, ID: T1, Quantity: TEMPERATURE
   160 Coords:      6.597990      0.000000      0.245000, Make: null, ID: T1, Quantity: TEMPERATURE
   161 Coords:      6.608040      0.000000      0.245000, Make: null, ID: T1, Quantity: TEMPERATURE
   162 Coords:      6.618090      0.000000      0.245000, Make: null, ID: T1, Quantity: TEMPERATURE
   163 Coords:      6.628141      0.000000      0.245000, Make: null, ID: T1, Quantity: TEMPERATURE
   164 Coords:      6.638191      0.000000      0.245000, Make: null, ID: T1, Quantity: TEMPERATURE
   165 Coords:      6.648241      0.000000      0.245000, Make: null, ID: T1, Quantity: TEMPERATURE
   166 Coords:      6.658291      0.000000      0.245000, Make: null, ID: T1, Quantity: TEMPERATURE
   167 Coords:      6.668342      0.000000      0.245000, Make: null, ID: T1, Quantity: TEMPERATURE
   168 Coords:      6.678392      0.000000      0.245000, Make: null, ID: T1, Quantity: TEMPERATURE
   169 Coords:      6.688442      0.000000      0.245000, Make: null, ID: T1, Quantity: TEMPERATURE
   170 Coords:      6.698492      0.000000      0.245000, Make: null, ID: T1, Quantity: TEMPERATURE
   171 Coords:      6.708543      0.000000      0.245000, Make: null, ID: T1, Quantity: TEMPERATURE
   172 Coords:      6.718593      0.000000      0.245000, Make: null, ID: T1, Quantity: TEMPERATURE
   173 Coords:      6.728643      0.000000      0.245000, Make: null, ID: T1, Quantity: TEMPERATURE
   174 Coords:      6.738693      0.000000      0.245000, Make: null, ID: T1, Quantity: TEMPERATURE
   175 Coords:      6.748744      0.000000      0.245000, Make: null, ID: T1, Quantity: TEMPERATURE
   176 Coords:      6.758794      0.000000      0.245000, Make: null, ID: T1, Quantity: TEMPERATURE
   177 Coords:      6.768844      0.000000      0.245000, Make: null, ID: T1, Quantity: TEMPERATURE
   178 Coords:      6.778894      0.000000      0.245000, Make: null, ID: T1, Quantity: TEMPERATURE
   179 Coords:      6.788945      0.000000      0.245000, Make: null, ID: T1, Quantity: TEMPERATURE
   180 Coords:      6.798995      0.000000      0.245000, Make: null, ID: T1, Quantity: TEMPERATURE
   181 Coords:      6.809045      0.000000      0.245000, Make: null, ID: T1, Quantity: TEMPERATURE
   182 Coords:      6.819095      0.000000      0.245000, Make: null, ID: T1, Quantity: TEMPERATURE
   183 Coords:      6.829146      0.000000      0.245000, Make: null, ID: T1, Quantity: TEMPERATURE
   184 Coords:      6.839196      0.000000      0.245000, Make: null, ID: T1, Quantity: TEMPERATURE
   185 Coords:      6.849246      0.000000      0.245000, Make: null, ID: T1, Quantity: TEMPERATURE
   186 Coords:      6.859296      0.000000      0.245000, Make: null, ID: T1, Quantity: TEMPERATURE
   187 Coords:      6.869347      0.000000      0.245000, Make: null, ID: T1, Quantity: TEMPERATURE
   188 Coords:      6.879397      0.000000      0.245000, Make: null, ID: T1, Quantity: TEMPERATURE
   189 Coords:      6.889447      0.000000      0.245000, Make: null, ID: T1, Quantity: TEMPERATURE
   190 Coords:      6.899497      0.000000      0.245000, Make: null, ID: T1, Quantity: TEMPERATURE
   191 Coords:      6.909548      0.000000      0.245000, Make: null, ID: T1, Quantity: TEMPERATURE
   192 Coords:      6.919598      0.000000      0.245000, Make: null, ID: T1, Quantity: TEMPERATURE
   193 Coords:      6.929648      0.000000      0.245000, Make: null, ID: T1, Quantity: TEMPERATURE
   194 Coords:      6.939698      0.000000      0.245000, Make: null, ID: T1, Quantity: TEMPERATURE
   195 Coords:      6.949749      0.000000      0.245000, Make: null, ID: T1, Quantity: TEMPERATURE
   196 Coords:      6.959799      0.000000      0.245000, Make: null, ID: T1, Quantity: TEMPERATURE
   197 Coords:      6.969849      0.000000      0.245000, Make: null, ID: T1, Quantity: TEMPERATURE
   198 Coords:      6.979899      0.000000      0.245000, Make: null, ID: T1, Quantity: TEMPERATURE
   199 Coords:      6.989950      0.000000      0.245000, Make: null, ID: T1, Quantity: TEMPERATURE
   200 Coords:      6.999900      0.000000      0.245000, Make: null, ID: T1, Quantity: TEMPERATURE
   201 Coords:      4.999900      0.000000      0.245000, Make: null, ID: T2, Quantity: TEMPERATURE
   202 Coords:      5.010050      0.000000      0.245000, Make: null, ID: T2, Quantity: TEMPERATURE
   203 Coords:      5.020101      0.000000      0.245000, Make: null, ID: T2, Quantity: TEMPERATURE
   204 Coords:      5.030151      0.000000      0.245000, Make: null, ID: T2, Quantity: TEMPERATURE
   205 Coords:      5.040201      0.000000      0.245000, Make: null, ID: T2, Quantity: TEMPERATURE
   206 Coords:      5.050251      0.000000      0.245000, Make: null, ID: T2, Quantity: TEMPERATURE
   207 Coords:      5.060302      0.000000      0.245000, Make: null, ID: T2, Quantity: TEMPERATURE
   208 Coords:      5.070352      0.000000      0.245000, Make: null, ID: T2, Quantity: TEMPERATURE
   209 Coords:      5.080402      0.000000      0.245000, Make: null, ID: T2, Quantity: TEMPERATURE
   210 Coords:      5.090452      0.000000      0.245000, Make: null, ID: T2, Quantity: TEMPERATURE
   211 Coords:      5.100503      0.000000      0.245000, Make: null, ID: T2, Quantity: TEMPERATURE
   212 Coords:      5.110553      0.000000      0.245000, Make: null, ID: T2, Quantity: TEMPERATURE
   213 Coords:      5.120603      0.000000      0.245000, Make: null, ID: T2, Quantity: TEMPERATURE
   214 Coords:      5.130653      0.000000      0.245000, Make: null, ID: T2, Quantity: TEMPERATURE
   215 Coords:      5.140704      0.000000      0.245000, Make: null, ID: T2, Quantity: TEMPERATURE
   216 Coords:      5.150754      0.000000      0.245000, Make: null, ID: T2, Quantity: TEMPERATURE
   217 Coords:      5.160804      0.000000      0.245000, Make: null, ID: T2, Quantity: TEMPERATURE
   218 Coords:      5.170854      0.000000      0.245000, Make: null, ID: T2, Quantity: TEMPERATURE
   219 Coords:      5.180905      0.000000      0.245000, Make: null, ID: T2, Quantity: TEMPERATURE
   220 Coords:      5.190955      0.000000      0.245000, Make: null, ID: T2, Quantity: TEMPERATURE
   221 Coords:      5.201005      0.000000      0.245000, Make: null, ID: T2, Quantity: TEMPERATURE
   222 Coords:      5.211055      0.000000      0.245000, Make: null, ID: T2, Quantity: TEMPERATURE
   223 Coords:      5.221106      0.000000      0.245000, Make: null, ID: T2, Quantity: TEMPERATURE
   224 Coords:      5.231156      0.000000      0.245000, Make: null, ID: T2, Quantity: TEMPERATURE
   225 Coords:      5.241206      0.000000      0.245000, Make: null, ID: T2, Quantity: TEMPERATURE
   226 Coords:      5.251256      0.000000      0.245000, Make: null, ID: T2, Quantity: TEMPERATURE
   227 Coords:      5.261307      0.000000      0.245000, Make: null, ID: T2, Quantity: TEMPERATURE
   228 Coords:      5.271357      0.000000      0.245000, Make: null, ID: T2, Quantity: TEMPERATURE
   229 Coords:      5.281407      0.000000      0.245000, Make: null, ID: T2, Quantity: TEMPERATURE
   230 Coords:      5.291457      0.000000      0.245000, Make: null, ID: T2, Quantity: TEMPERATURE
   231 Coords:      5.301508      0.000000      0.245000, Make: null, ID: T2, Quantity: TEMPERATURE
   232 Coords:      5.311558      0.000000      0.245000, Make: null, ID: T2, Quantity: TEMPERATURE
   233 Coords:      5.321608      0.000000      0.245000, Make: null, ID: T2, Quantity: TEMPERATURE
   234 Coords:      5.331658      0.000000      0.245000, Make: null, ID: T2, Quantity: TEMPERATURE
   235 Coords:      5.341709      0.000000      0.245000, Make: null, ID: T2, Quantity: TEMPERATURE
   236 Coords:      5.351759      0.000000      0.245000, Make: null, ID: T2, Quantity: TEMPERATURE
   237 Coords:      5.361809      0.000000      0.245000, Make: null, ID: T2, Quantity: TEMPERATURE
   238 Coords:      5.371859      0.000000      0.245000, Make: null, ID: T2, Quantity: TEMPERATURE
   239 Coords:      5.381910      0.000000      0.245000, Make: null, ID: T2, Quantity: TEMPERATURE
   240 Coords:      5.391960      0.000000      0.245000, Make: null, ID: T2, Quantity: TEMPERATURE
   241 Coords:      5.402010      0.000000      0.245000, Make: null, ID: T2, Quantity: TEMPERATURE
   242 Coords:      5.412060      0.000000      0.245000, Make: null, ID: T2, Quantity: TEMPERATURE
   243 Coords:      5.422111      0.000000      0.245000, Make: null, ID: T2, Quantity: TEMPERATURE
   244 Coords:      5.432161      0.000000      0.245000, Make: null, ID: T2, Quantity: TEMPERATURE
   245 Coords:      5.442211      0.000000      0.245000, Make: null, ID: T2, Quantity: TEMPERATURE
   246 Coords:      5.452261      0.000000      0.245000, Make: null, ID: T2, Quantity: TEMPERATURE
   247 Coords:      5.462312      0.000000      0.245000, Make: null, ID: T2, Quantity: TEMPERATURE
   248 Coords:      5.472362      0.000000      0.245000, Make: null, ID: T2, Quantity: TEMPERATURE
   249 Coords:      5.482412      0.000000      0.245000, Make: null, ID: T2, Quantity: TEMPERATURE
   250 Coords:      5.492462      0.000000      0.245000, Make: null, ID: T2, Quantity: TEMPERATURE
   251 Coords:      5.502513      0.000000      0.245000, Make: null, ID: T2, Quantity: TEMPERATURE
   252 Coords:      5.512563      0.000000      0.245000, Make: null, ID: T2, Quantity: TEMPERATURE
   253 Coords:      5.522613      0.000000      0.245000, Make: null, ID: T2, Quantity: TEMPERATURE
   254 Coords:      5.532663      0.000000      0.245000, Make: null, ID: T2, Quantity: TEMPERATURE
   255 Coords:      5.542714      0.000000      0.245000, Make: null, ID: T2, Quantity: TEMPERATURE
   256 Coords:      5.552764      0.000000      0.245000, Make: null, ID: T2, Quantity: TEMPERATURE
   257 Coords:      5.562814      0.000000      0.245000, Make: null, ID: T2, Quantity: TEMPERATURE
   258 Coords:      5.572864      0.000000      0.245000, Make: null, ID: T2, Quantity: TEMPERATURE
   259 Coords:      5.582915      0.000000      0.245000, Make: null, ID: T2, Quantity: TEMPERATURE
   260 Coords:      5.592965      0.000000      0.245000, Make: null, ID: T2, Quantity: TEMPERATURE
   261 Coords:      5.603015      0.000000      0.245000, Make: null, ID: T2, Quantity: TEMPERATURE
   262 Coords:      5.613065      0.000000      0.245000, Make: null, ID: T2, Quantity: TEMPERATURE
   263 Coords:      5.623116      0.000000      0.245000, Make: null, ID: T2, Quantity: TEMPERATURE
   264 Coords:      5.633166      0.000000      0.245000, Make: null, ID: T2, Quantity: TEMPERATURE
   265 Coords:      5.643216      0.000000      0.245000, Make: null, ID: T2, Quantity: TEMPERATURE
   266 Coords:      5.653266      0.000000      0.245000, Make: null, ID: T2, Quantity: TEMPERATURE
   267 Coords:      5.663317      0.000000      0.245000, Make: null, ID: T2, Quantity: TEMPERATURE
   268 Coords:      5.673367      0.000000      0.245000, Make: null, ID: T2, Quantity: TEMPERATURE
   269 Coords:      5.683417      0.000000      0.245000, Make: null, ID: T2, Quantity: TEMPERATURE
   270 Coords:      5.693467      0.000000      0.245000, Make: null, ID: T2, Quantity: TEMPERATURE
   271 Coords:      5.703518      0.000000      0.245000, Make: null, ID: T2, Quantity: TEMPERATURE
   272 Coords:      5.713568      0.000000      0.245000, Make: null, ID: T2, Quantity: TEMPERATURE
   273 Coords:      5.723618      0.000000      0.245000, Make: null, ID: T2, Quantity: TEMPERATURE
   274 Coords:      5.733668      0.000000      0.245000, Make: null, ID: T2, Quantity: TEMPERATURE
   275 Coords:      5.743719      0.000000      0.245000, Make: null, ID: T2, Quantity: TEMPERATURE
   276 Coords:      5.753769      0.000000      0.245000, Make: null, ID: T2, Quantity: TEMPERATURE
   277 Coords:      5.763819      0.000000      0.245000, Make: null, ID: T2, Quantity: TEMPERATURE
   278 Coords:      5.773869      0.000000      0.245000, Make: null, ID: T2, Quantity: TEMPERATURE
   279 Coords:      5.783920      0.000000      0.245000, Make: null, ID: T2, Quantity: TEMPERATURE
   280 Coords:      5.793970      0.000000      0.245000, Make: null, ID: T2, Quantity: TEMPERATURE
   281 Coords:      5.804020      0.000000      0.245000, Make: null, ID: T2, Quantity: TEMPERATURE
   282 Coords:      5.814070      0.000000      0.245000, Make: null, ID: T2, Quantity: TEMPERATURE
   283 Coords:      5.824121      0.000000      0.245000, Make: null, ID: T2, Quantity: TEMPERATURE
   284 Coords:      5.834171      0.000000      0.245000, Make: null, ID: T2, Quantity: TEMPERATURE
   285 Coords:      5.844221      0.000000      0.245000, Make: null, ID: T2, Quantity: TEMPERATURE
   286 Coords:      5.854271      0.000000      0.245000, Make: null, ID: T2, Quantity: TEMPERATURE
   287 Coords:      5.864322      0.000000      0.245000, Make: null, ID: T2, Quantity: TEMPERATURE
   288 Coords:      5.874372      0.000000      0.245000, Make: null, ID: T2, Quantity: TEMPERATURE
   289 Coords:      5.884422      0.000000      0.245000, Make: null, ID: T2, Quantity: TEMPERATURE
   290 Coords:      5.894472      0.000000      0.245000, Make: null, ID: T2, Quantity: TEMPERATURE
   291 Coords:      5.904523      0.000000      0.245000, Make: null, ID: T2, Quantity: TEMPERATURE
   292 Coords:      5.914573      0.000000      0.245000, Make: null, ID: T2, Quantity: TEMPERATURE
   293 Coords:      5.924623      0.000000      0.245000, Make: null, ID: T2, Quantity: TEMPERATURE
   294 Coords:      5.934673      0.000000      0.245000, Make: null, ID: T2, Quantity: TEMPERATURE
   295 Coords:      5.944724      0.000000      0.245000, Make: null, ID: T2, Quantity: TEMPERATURE
   296 Coords:      5.954774      0.000000      0.245000, Make: null, ID: T2, Quantity: TEMPERATURE
   297 Coords:      5.964824      0.000000      0.245000, Make: null, ID: T2, Quantity: TEMPERATURE
   298 Coords:      5.974874      0.000000      0.245000, Make: null, ID: T2, Quantity: TEMPERATURE
   299 Coords:      5.984925      0.000000      0.245000, Make: null, ID: T2, Quantity: TEMPERATURE
   300 Coords:      5.994975      0.000000      0.245000, Make: null, ID: T2, Quantity: TEMPERATURE
   301 Coords:      6.005025      0.000000      0.245000, Make: null, ID: T2, Quantity: TEMPERATURE
   302 Coords:      6.015075      0.000000      0.245000, Make: null, ID: T2, Quantity: TEMPERATURE
   303 Coords:      6.025126      0.000000      0.245000, Make: null, ID: T2, Quantity: TEMPERATURE
   304 Coords:      6.035176      0.000000      0.245000, Make: null, ID: T2, Quantity: TEMPERATURE
   305 Coords:      6.045226      0.000000      0.245000, Make: null, ID: T2, Quantity: TEMPERATURE
   306 Coords:      6.055276      0.000000      0.245000, Make: null, ID: T2, Quantity: TEMPERATURE
   307 Coords:      6.065327      0.000000      0.245000, Make: null, ID: T2, Quantity: TEMPERATURE
   308 Coords:      6.075377      0.000000      0.245000, Make: null, ID: T2, Quantity: TEMPERATURE
   309 Coords:      6.085427      0.000000      0.245000, Make: null, ID: T2, Quantity: TEMPERATURE
   310 Coords:      6.095477      0.000000      0.245000, Make: null, ID: T2, Quantity: TEMPERATURE
   311 Coords:      6.105528      0.000000      0.245000, Make: null, ID: T2, Quantity: TEMPERATURE
   312 Coords:      6.115578      0.000000      0.245000, Make: null, ID: T2, Quantity: TEMPERATURE
   313 Coords:      6.125628      0.000000      0.245000, Make: null, ID: T2, Quantity: TEMPERATURE
   314 Coords:      6.135678      0.000000      0.245000, Make: null, ID: T2, Quantity: TEMPERATURE
   315 Coords:      6.145729      0.000000      0.245000, Make: null, ID: T2, Quantity: TEMPERATURE
   316 Coords:      6.155779      0.000000      0.245000, Make: null, ID: T2, Quantity: TEMPERATURE
   317 Coords:      6.165829      0.000000      0.245000, Make: null, ID: T2, Quantity: TEMPERATURE
   318 Coords:      6.175879      0.000000      0.245000, Make: null, ID: T2, Quantity: TEMPERATURE
   319 Coords:      6.185930      0.000000      0.245000, Make: null, ID: T2, Quantity: TEMPERATURE
   320 Coords:      6.195980      0.000000      0.245000, Make: null, ID: T2, Quantity: TEMPERATURE
   321 Coords:      6.206030      0.000000      0.245000, Make: null, ID: T2, Quantity: TEMPERATURE
   322 Coords:      6.216080      0.000000      0.245000, Make: null, ID: T2, Quantity: TEMPERATURE
   323 Coords:      6.226131      0.000000      0.245000, Make: null, ID: T2, Quantity: TEMPERATURE
   324 Coords:      6.236181      0.000000      0.245000, Make: null, ID: T2, Quantity: TEMPERATURE
   325 Coords:      6.246231      0.000000      0.245000, Make: null, ID: T2, Quantity: TEMPERATURE
   326 Coords:      6.256281      0.000000      0.245000, Make: null, ID: T2, Quantity: TEMPERATURE
   327 Coords:      6.266332      0.000000      0.245000, Make: null, ID: T2, Quantity: TEMPERATURE
   328 Coords:      6.276382      0.000000      0.245000, Make: null, ID: T2, Quantity: TEMPERATURE
   329 Coords:      6.286432      0.000000      0.245000, Make: null, ID: T2, Quantity: TEMPERATURE
   330 Coords:      6.296482      0.000000      0.245000, Make: null, ID: T2, Quantity: TEMPERATURE
   331 Coords:      6.306533      0.000000      0.245000, Make: null, ID: T2, Quantity: TEMPERATURE
   332 Coords:      6.316583      0.000000      0.245000, Make: null, ID: T2, Quantity: TEMPERATURE
   333 Coords:      6.326633      0.000000      0.245000, Make: null, ID: T2, Quantity: TEMPERATURE
   334 Coords:      6.336683      0.000000      0.245000, Make: null, ID: T2, Quantity: TEMPERATURE
   335 Coords:      6.346734      0.000000      0.245000, Make: null, ID: T2, Quantity: TEMPERATURE
   336 Coords:      6.356784      0.000000      0.245000, Make: null, ID: T2, Quantity: TEMPERATURE
   337 Coords:      6.366834      0.000000      0.245000, Make: null, ID: T2, Quantity: TEMPERATURE
   338 Coords:      6.376884      0.000000      0.245000, Make: null, ID: T2, Quantity: TEMPERATURE
   339 Coords:      6.386935      0.000000      0.245000, Make: null, ID: T2, Quantity: TEMPERATURE
   340 Coords:      6.396985      0.000000      0.245000, Make: null, ID: T2, Quantity: TEMPERATURE
   341 Coords:      6.407035      0.000000      0.245000, Make: null, ID: T2, Quantity: TEMPERATURE
   342 Coords:      6.417085      0.000000      0.245000, Make: null, ID: T2, Quantity: TEMPERATURE
   343 Coords:      6.427136      0.000000      0.245000, Make: null, ID: T2, Quantity: TEMPERATURE
   344 Coords:      6.437186      0.000000      0.245000, Make: null, ID: T2, Quantity: TEMPERATURE
   345 Coords:      6.447236      0.000000      0.245000, Make: null, ID: T2, Quantity: TEMPERATURE
   346 Coords:      6.457286      0.000000      0.245000, Make: null, ID: T2, Quantity: TEMPERATURE
   347 Coords:      6.467337      0.000000      0.245000, Make: null, ID: T2, Quantity: TEMPERATURE
   348 Coords:      6.477387      0.000000      0.245000, Make: null, ID: T2, Quantity: TEMPERATURE
   349 Coords:      6.487437      0.000000      0.245000, Make: null, ID: T2, Quantity: TEMPERATURE
   350 Coords:      6.497487      0.000000      0.245000, Make: null, ID: T2, Quantity: TEMPERATURE
   351 Coords:      6.507538      0.000000      0.245000, Make: null, ID: T2, Quantity: TEMPERATURE
   352 Coords:      6.517588      0.000000      0.245000, Make: null, ID: T2, Quantity: TEMPERATURE
   353 Coords:      6.527638      0.000000      0.245000, Make: null, ID: T2, Quantity: TEMPERATURE
   354 Coords:      6.537688      0.000000      0.245000, Make: null, ID: T2, Quantity: TEMPERATURE
   355 Coords:      6.547739      0.000000      0.245000, Make: null, ID: T2, Quantity: TEMPERATURE
   356 Coords:      6.557789      0.000000      0.245000, Make: null, ID: T2, Quantity: TEMPERATURE
   357 Coords:      6.567839      0.000000      0.245000, Make: null, ID: T2, Quantity: TEMPERATURE
   358 Coords:      6.577889      0.000000      0.245000, Make: null, ID: T2, Quantity: TEMPERATURE
   359 Coords:      6.587940      0.000000      0.245000, Make: null, ID: T2, Quantity: TEMPERATURE
   360 Coords:      6.597990      0.000000      0.245000, Make: null, ID: T2, Quantity: TEMPERATURE
   361 Coords:      6.608040      0.000000      0.245000, Make: null, ID: T2, Quantity: TEMPERATURE
   362 Coords:      6.618090      0.000000      0.245000, Make: null, ID: T2, Quantity: TEMPERATURE
   363 Coords:      6.628141      0.000000      0.245000, Make: null, ID: T2, Quantity: TEMPERATURE
   364 Coords:      6.638191      0.000000      0.245000, Make: null, ID: T2, Quantity: TEMPERATURE
   365 Coords:      6.648241      0.000000      0.245000, Make: null, ID: T2, Quantity: TEMPERATURE
   366 Coords:      6.658291      0.000000      0.245000, Make: null, ID: T2, Quantity: TEMPERATURE
   367 Coords:      6.668342      0.000000      0.245000, Make: null, ID: T2, Quantity: TEMPERATURE
   368 Coords:      6.678392      0.000000      0.245000, Make: null, ID: T2, Quantity: TEMPERATURE
   369 Coords:      6.688442      0.000000      0.245000, Make: null, ID: T2, Quantity: TEMPERATURE
   370 Coords:      6.698492      0.000000      0.245000, Make: null, ID: T2, Quantity: TEMPERATURE
   371 Coords:      6.708543      0.000000      0.245000, Make: null, ID: T2, Quantity: TEMPERATURE
   372 Coords:      6.718593      0.000000      0.245000, Make: null, ID: T2, Quantity: TEMPERATURE
   373 Coords:      6.728643      0.000000      0.245000, Make: null, ID: T2, Quantity: TEMPERATURE
   374 Coords:      6.738693      0.000000      0.245000, Make: null, ID: T2, Quantity: TEMPERATURE
   375 Coords:      6.748744      0.000000      0.245000, Make: null, ID: T2, Quantity: TEMPERATURE
   376 Coords:      6.758794      0.000000      0.245000, Make: null, ID: T2, Quantity: TEMPERATURE
   377 Coords:      6.768844      0.000000      0.245000, Make: null, ID: T2, Quantity: TEMPERATURE
   378 Coords:      6.778894      0.000000      0.245000, Make: null, ID: T2, Quantity: TEMPERATURE
   379 Coords:      6.788945      0.000000      0.245000, Make: null, ID: T2, Quantity: TEMPERATURE
   380 Coords:      6.798995      0.000000      0.245000, Make: null, ID: T2, Quantity: TEMPERATURE
   381 Coords:      6.809045      0.000000      0.245000, Make: null, ID: T2, Quantity: TEMPERATURE
   382 Coords:      6.819095      0.000000      0.245000, Make: null, ID: T2, Quantity: TEMPERATURE
   383 Coords:      6.829146      0.000000      0.245000, Make: null, ID: T2, Quantity: TEMPERATURE
   384 Coords:      6.839196      0.000000      0.245000, Make: null, ID: T2, Quantity: TEMPERATURE
   385 Coords:      6.849246      0.000000      0.245000, Make: null, ID: T2, Quantity: TEMPERATURE
   386 Coords:      6.859296      0.000000      0.245000, Make: null, ID: T2, Quantity: TEMPERATURE
   387 Coords:      6.869347      0.000000      0.245000, Make: null, ID: T2, Quantity: TEMPERATURE
   388 Coords:      6.879397      0.000000      0.245000, Make: null, ID: T2, Quantity: TEMPERATURE
   389 Coords:      6.889447      0.000000      0.245000, Make: null, ID: T2, Quantity: TEMPERATURE
   390 Coords:      6.899497      0.000000      0.245000, Make: null, ID: T2, Quantity: TEMPERATURE
   391 Coords:      6.909548      0.000000      0.245000, Make: null, ID: T2, Quantity: TEMPERATURE
   392 Coords:      6.919598      0.000000      0.245000, Make: null, ID: T2, Quantity: TEMPERATURE
   393 Coords:      6.929648      0.000000      0.245000, Make: null, ID: T2, Quantity: TEMPERATURE
   394 Coords:      6.939698      0.000000      0.245000, Make: null, ID: T2, Quantity: TEMPERATURE
   395 Coords:      6.949749      0.000000      0.245000, Make: null, ID: T2, Quantity: TEMPERATURE
   396 Coords:      6.959799      0.000000      0.245000, Make: null, ID: T2, Quantity: TEMPERATURE
   397 Coords:      6.969849      0.000000      0.245000, Make: null, ID: T2, Quantity: TEMPERATURE
   398 Coords:      6.979899      0.000000      0.245000, Make: null, ID: T2, Quantity: TEMPERATURE
   399 Coords:      6.989950      0.000000      0.245000, Make: null, ID: T2, Quantity: TEMPERATURE
   400 Coords:      6.999900      0.000000      0.245000, Make: null, ID: T2, Quantity: TEMPERATURE
   401 Coords:      4.999900      0.000000      0.245000, Make: null, ID: T3, Quantity: TEMPERATURE
   402 Coords:      5.010050      0.000000      0.245000, Make: null, ID: T3, Quantity: TEMPERATURE
   403 Coords:      5.020101      0.000000      0.245000, Make: null, ID: T3, Quantity: TEMPERATURE
   404 Coords:      5.030151      0.000000      0.245000, Make: null, ID: T3, Quantity: TEMPERATURE
   405 Coords:      5.040201      0.000000      0.245000, Make: null, ID: T3, Quantity: TEMPERATURE
   406 Coords:      5.050251      0.000000      0.245000, Make: null, ID: T3, Quantity: TEMPERATURE
   407 Coords:      5.060302      0.000000      0.245000, Make: null, ID: T3, Quantity: TEMPERATURE
   408 Coords:      5.070352      0.000000      0.245000, Make: null, ID: T3, Quantity: TEMPERATURE
   409 Coords:      5.080402      0.000000      0.245000, Make: null, ID: T3, Quantity: TEMPERATURE
   410 Coords:      5.090452      0.000000      0.245000, Make: null, ID: T3, Quantity: TEMPERATURE
   411 Coords:      5.100503      0.000000      0.245000, Make: null, ID: T3, Quantity: TEMPERATURE
   412 Coords:      5.110553      0.000000      0.245000, Make: null, ID: T3, Quantity: TEMPERATURE
   413 Coords:      5.120603      0.000000      0.245000, Make: null, ID: T3, Quantity: TEMPERATURE
   414 Coords:      5.130653      0.000000      0.245000, Make: null, ID: T3, Quantity: TEMPERATURE
   415 Coords:      5.140704      0.000000      0.245000, Make: null, ID: T3, Quantity: TEMPERATURE
   416 Coords:      5.150754      0.000000      0.245000, Make: null, ID: T3, Quantity: TEMPERATURE
   417 Coords:      5.160804      0.000000      0.245000, Make: null, ID: T3, Quantity: TEMPERATURE
   418 Coords:      5.170854      0.000000      0.245000, Make: null, ID: T3, Quantity: TEMPERATURE
   419 Coords:      5.180905      0.000000      0.245000, Make: null, ID: T3, Quantity: TEMPERATURE
   420 Coords:      5.190955      0.000000      0.245000, Make: null, ID: T3, Quantity: TEMPERATURE
   421 Coords:      5.201005      0.000000      0.245000, Make: null, ID: T3, Quantity: TEMPERATURE
   422 Coords:      5.211055      0.000000      0.245000, Make: null, ID: T3, Quantity: TEMPERATURE
   423 Coords:      5.221106      0.000000      0.245000, Make: null, ID: T3, Quantity: TEMPERATURE
   424 Coords:      5.231156      0.000000      0.245000, Make: null, ID: T3, Quantity: TEMPERATURE
   425 Coords:      5.241206      0.000000      0.245000, Make: null, ID: T3, Quantity: TEMPERATURE
   426 Coords:      5.251256      0.000000      0.245000, Make: null, ID: T3, Quantity: TEMPERATURE
   427 Coords:      5.261307      0.000000      0.245000, Make: null, ID: T3, Quantity: TEMPERATURE
   428 Coords:      5.271357      0.000000      0.245000, Make: null, ID: T3, Quantity: TEMPERATURE
   429 Coords:      5.281407      0.000000      0.245000, Make: null, ID: T3, Quantity: TEMPERATURE
   430 Coords:      5.291457      0.000000      0.245000, Make: null, ID: T3, Quantity: TEMPERATURE
   431 Coords:      5.301508      0.000000      0.245000, Make: null, ID: T3, Quantity: TEMPERATURE
   432 Coords:      5.311558      0.000000      0.245000, Make: null, ID: T3, Quantity: TEMPERATURE
   433 Coords:      5.321608      0.000000      0.245000, Make: null, ID: T3, Quantity: TEMPERATURE
   434 Coords:      5.331658      0.000000      0.245000, Make: null, ID: T3, Quantity: TEMPERATURE
   435 Coords:      5.341709      0.000000      0.245000, Make: null, ID: T3, Quantity: TEMPERATURE
   436 Coords:      5.351759      0.000000      0.245000, Make: null, ID: T3, Quantity: TEMPERATURE
   437 Coords:      5.361809      0.000000      0.245000, Make: null, ID: T3, Quantity: TEMPERATURE
   438 Coords:      5.371859      0.000000      0.245000, Make: null, ID: T3, Quantity: TEMPERATURE
   439 Coords:      5.381910      0.000000      0.245000, Make: null, ID: T3, Quantity: TEMPERATURE
   440 Coords:      5.391960      0.000000      0.245000, Make: null, ID: T3, Quantity: TEMPERATURE
   441 Coords:      5.402010      0.000000      0.245000, Make: null, ID: T3, Quantity: TEMPERATURE
   442 Coords:      5.412060      0.000000      0.245000, Make: null, ID: T3, Quantity: TEMPERATURE
   443 Coords:      5.422111      0.000000      0.245000, Make: null, ID: T3, Quantity: TEMPERATURE
   444 Coords:      5.432161      0.000000      0.245000, Make: null, ID: T3, Quantity: TEMPERATURE
   445 Coords:      5.442211      0.000000      0.245000, Make: null, ID: T3, Quantity: TEMPERATURE
   446 Coords:      5.452261      0.000000      0.245000, Make: null, ID: T3, Quantity: TEMPERATURE
   447 Coords:      5.462312      0.000000      0.245000, Make: null, ID: T3, Quantity: TEMPERATURE
   448 Coords:      5.472362      0.000000      0.245000, Make: null, ID: T3, Quantity: TEMPERATURE
   449 Coords:      5.482412      0.000000      0.245000, Make: null, ID: T3, Quantity: TEMPERATURE
   450 Coords:      5.492462      0.000000      0.245000, Make: null, ID: T3, Quantity: TEMPERATURE
   451 Coords:      5.502513      0.000000      0.245000, Make: null, ID: T3, Quantity: TEMPERATURE
   452 Coords:      5.512563      0.000000      0.245000, Make: null, ID: T3, Quantity: TEMPERATURE
   453 Coords:      5.522613      0.000000      0.245000, Make: null, ID: T3, Quantity: TEMPERATURE
   454 Coords:      5.532663      0.000000      0.245000, Make: null, ID: T3, Quantity: TEMPERATURE
   455 Coords:      5.542714      0.000000      0.245000, Make: null, ID: T3, Quantity: TEMPERATURE
   456 Coords:      5.552764      0.000000      0.245000, Make: null, ID: T3, Quantity: TEMPERATURE
   457 Coords:      5.562814      0.000000      0.245000, Make: null, ID: T3, Quantity: TEMPERATURE
   458 Coords:      5.572864      0.000000      0.245000, Make: null, ID: T3, Quantity: TEMPERATURE
   459 Coords:      5.582915      0.000000      0.245000, Make: null, ID: T3, Quantity: TEMPERATURE
   460 Coords:      5.592965      0.000000      0.245000, Make: null, ID: T3, Quantity: TEMPERATURE
   461 Coords:      5.603015      0.000000      0.245000, Make: null, ID: T3, Quantity: TEMPERATURE
   462 Coords:      5.613065      0.000000      0.245000, Make: null, ID: T3, Quantity: TEMPERATURE
   463 Coords:      5.623116      0.000000      0.245000, Make: null, ID: T3, Quantity: TEMPERATURE
   464 Coords:      5.633166      0.000000      0.245000, Make: null, ID: T3, Quantity: TEMPERATURE
   465 Coords:      5.643216      0.000000      0.245000, Make: null, ID: T3, Quantity: TEMPERATURE
   466 Coords:      5.653266      0.000000      0.245000, Make: null, ID: T3, Quantity: TEMPERATURE
   467 Coords:      5.663317      0.000000      0.245000, Make: null, ID: T3, Quantity: TEMPERATURE
   468 Coords:      5.673367      0.000000      0.245000, Make: null, ID: T3, Quantity: TEMPERATURE
   469 Coords:      5.683417      0.000000      0.245000, Make: null, ID: T3, Quantity: TEMPERATURE
   470 Coords:      5.693467      0.000000      0.245000, Make: null, ID: T3, Quantity: TEMPERATURE
   471 Coords:      5.703518      0.000000      0.245000, Make: null, ID: T3, Quantity: TEMPERATURE
   472 Coords:      5.713568      0.000000      0.245000, Make: null, ID: T3, Quantity: TEMPERATURE
   473 Coords:      5.723618      0.000000      0.245000, Make: null, ID: T3, Quantity: TEMPERATURE
   474 Coords:      5.733668      0.000000      0.245000, Make: null, ID: T3, Quantity: TEMPERATURE
   475 Coords:      5.743719      0.000000      0.245000, Make: null, ID: T3, Quantity: TEMPERATURE
   476 Coords:      5.753769      0.000000      0.245000, Make: null, ID: T3, Quantity: TEMPERATURE
   477 Coords:      5.763819      0.000000      0.245000, Make: null, ID: T3, Quantity: TEMPERATURE
   478 Coords:      5.773869      0.000000      0.245000, Make: null, ID: T3, Quantity: TEMPERATURE
   479 Coords:      5.783920      0.000000      0.245000, Make: null, ID: T3, Quantity: TEMPERATURE
   480 Coords:      5.793970      0.000000      0.245000, Make: null, ID: T3, Quantity: TEMPERATURE
   481 Coords:      5.804020      0.000000      0.245000, Make: null, ID: T3, Quantity: TEMPERATURE
   482 Coords:      5.814070      0.000000      0.245000, Make: null, ID: T3, Quantity: TEMPERATURE
   483 Coords:      5.824121      0.000000      0.245000, Make: null, ID: T3, Quantity: TEMPERATURE
   484 Coords:      5.834171      0.000000      0.245000, Make: null, ID: T3, Quantity: TEMPERATURE
   485 Coords:      5.844221      0.000000      0.245000, Make: null, ID: T3, Quantity: TEMPERATURE
   486 Coords:      5.854271      0.000000      0.245000, Make: null, ID: T3, Quantity: TEMPERATURE
   487 Coords:      5.864322      0.000000      0.245000, Make: null, ID: T3, Quantity: TEMPERATURE
   488 Coords:      5.874372      0.000000      0.245000, Make: null, ID: T3, Quantity: TEMPERATURE
   489 Coords:      5.884422      0.000000      0.245000, Make: null, ID: T3, Quantity: TEMPERATURE
   490 Coords:      5.894472      0.000000      0.245000, Make: null, ID: T3, Quantity: TEMPERATURE
   491 Coords:      5.904523      0.000000      0.245000, Make: null, ID: T3, Quantity: TEMPERATURE
   492 Coords:      5.914573      0.000000      0.245000, Make: null, ID: T3, Quantity: TEMPERATURE
   493 Coords:      5.924623      0.000000      0.245000, Make: null, ID: T3, Quantity: TEMPERATURE
   494 Coords:      5.934673      0.000000      0.245000, Make: null, ID: T3, Quantity: TEMPERATURE
   495 Coords:      5.944724      0.000000      0.245000, Make: null, ID: T3, Quantity: TEMPERATURE
   496 Coords:      5.954774      0.000000      0.245000, Make: null, ID: T3, Quantity: TEMPERATURE
   497 Coords:      5.964824      0.000000      0.245000, Make: null, ID: T3, Quantity: TEMPERATURE
   498 Coords:      5.974874      0.000000      0.245000, Make: null, ID: T3, Quantity: TEMPERATURE
   499 Coords:      5.984925      0.000000      0.245000, Make: null, ID: T3, Quantity: TEMPERATURE
   500 Coords:      5.994975      0.000000      0.245000, Make: null, ID: T3, Quantity: TEMPERATURE
   501 Coords:      6.005025      0.000000      0.245000, Make: null, ID: T3, Quantity: TEMPERATURE
   502 Coords:      6.015075      0.000000      0.245000, Make: null, ID: T3, Quantity: TEMPERATURE
   503 Coords:      6.025126      0.000000      0.245000, Make: null, ID: T3, Quantity: TEMPERATURE
   504 Coords:      6.035176      0.000000      0.245000, Make: null, ID: T3, Quantity: TEMPERATURE
   505 Coords:      6.045226      0.000000      0.245000, Make: null, ID: T3, Quantity: TEMPERATURE
   506 Coords:      6.055276      0.000000      0.245000, Make: null, ID: T3, Quantity: TEMPERATURE
   507 Coords:      6.065327      0.000000      0.245000, Make: null, ID: T3, Quantity: TEMPERATURE
   508 Coords:      6.075377      0.000000      0.245000, Make: null, ID: T3, Quantity: TEMPERATURE
   509 Coords:      6.085427      0.000000      0.245000, Make: null, ID: T3, Quantity: TEMPERATURE
   510 Coords:      6.095477      0.000000      0.245000, Make: null, ID: T3, Quantity: TEMPERATURE
   511 Coords:      6.105528      0.000000      0.245000, Make: null, ID: T3, Quantity: TEMPERATURE
   512 Coords:      6.115578      0.000000      0.245000, Make: null, ID: T3, Quantity: TEMPERATURE
   513 Coords:      6.125628      0.000000      0.245000, Make: null, ID: T3, Quantity: TEMPERATURE
   514 Coords:      6.135678      0.000000      0.245000, Make: null, ID: T3, Quantity: TEMPERATURE
   515 Coords:      6.145729      0.000000      0.245000, Make: null, ID: T3, Quantity: TEMPERATURE
   516 Coords:      6.155779      0.000000      0.245000, Make: null, ID: T3, Quantity: TEMPERATURE
   517 Coords:      6.165829      0.000000      0.245000, Make: null, ID: T3, Quantity: TEMPERATURE
   518 Coords:      6.175879      0.000000      0.245000, Make: null, ID: T3, Quantity: TEMPERATURE
   519 Coords:      6.185930      0.000000      0.245000, Make: null, ID: T3, Quantity: TEMPERATURE
   520 Coords:      6.195980      0.000000      0.245000, Make: null, ID: T3, Quantity: TEMPERATURE
   521 Coords:      6.206030      0.000000      0.245000, Make: null, ID: T3, Quantity: TEMPERATURE
   522 Coords:      6.216080      0.000000      0.245000, Make: null, ID: T3, Quantity: TEMPERATURE
   523 Coords:      6.226131      0.000000      0.245000, Make: null, ID: T3, Quantity: TEMPERATURE
   524 Coords:      6.236181      0.000000      0.245000, Make: null, ID: T3, Quantity: TEMPERATURE
   525 Coords:      6.246231      0.000000      0.245000, Make: null, ID: T3, Quantity: TEMPERATURE
   526 Coords:      6.256281      0.000000      0.245000, Make: null, ID: T3, Quantity: TEMPERATURE
   527 Coords:      6.266332      0.000000      0.245000, Make: null, ID: T3, Quantity: TEMPERATURE
   528 Coords:      6.276382      0.000000      0.245000, Make: null, ID: T3, Quantity: TEMPERATURE
   529 Coords:      6.286432      0.000000      0.245000, Make: null, ID: T3, Quantity: TEMPERATURE
   530 Coords:      6.296482      0.000000      0.245000, Make: null, ID: T3, Quantity: TEMPERATURE
   531 Coords:      6.306533      0.000000      0.245000, Make: null, ID: T3, Quantity: TEMPERATURE
   532 Coords:      6.316583      0.000000      0.245000, Make: null, ID: T3, Quantity: TEMPERATURE
   533 Coords:      6.326633      0.000000      0.245000, Make: null, ID: T3, Quantity: TEMPERATURE
   534 Coords:      6.336683      0.000000      0.245000, Make: null, ID: T3, Quantity: TEMPERATURE
   535 Coords:      6.346734      0.000000      0.245000, Make: null, ID: T3, Quantity: TEMPERATURE
   536 Coords:      6.356784      0.000000      0.245000, Make: null, ID: T3, Quantity: TEMPERATURE
   537 Coords:      6.366834      0.000000      0.245000, Make: null, ID: T3, Quantity: TEMPERATURE
   538 Coords:      6.376884      0.000000      0.245000, Make: null, ID: T3, Quantity: TEMPERATURE
   539 Coords:      6.386935      0.000000      0.245000, Make: null, ID: T3, Quantity: TEMPERATURE
   540 Coords:      6.396985      0.000000      0.245000, Make: null, ID: T3, Quantity: TEMPERATURE
   541 Coords:      6.407035      0.000000      0.245000, Make: null, ID: T3, Quantity: TEMPERATURE
   542 Coords:      6.417085      0.000000      0.245000, Make: null, ID: T3, Quantity: TEMPERATURE
   543 Coords:      6.427136      0.000000      0.245000, Make: null, ID: T3, Quantity: TEMPERATURE
   544 Coords:      6.437186      0.000000      0.245000, Make: null, ID: T3, Quantity: TEMPERATURE
   545 Coords:      6.447236      0.000000      0.245000, Make: null, ID: T3, Quantity: TEMPERATURE
   546 Coords:      6.457286      0.000000      0.245000, Make: null, ID: T3, Quantity: TEMPERATURE
   547 Coords:      6.467337      0.000000      0.245000, Make: null, ID: T3, Quantity: TEMPERATURE
   548 Coords:      6.477387      0.000000      0.245000, Make: null, ID: T3, Quantity: TEMPERATURE
   549 Coords:      6.487437      0.000000      0.245000, Make: null, ID: T3, Quantity: TEMPERATURE
   550 Coords:      6.497487      0.000000      0.245000, Make: null, ID: T3, Quantity: TEMPERATURE
   551 Coords:      6.507538      0.000000      0.245000, Make: null, ID: T3, Quantity: TEMPERATURE
   552 Coords:      6.517588      0.000000      0.245000, Make: null, ID: T3, Quantity: TEMPERATURE
   553 Coords:      6.527638      0.000000      0.245000, Make: null, ID: T3, Quantity: TEMPERATURE
   554 Coords:      6.537688      0.000000      0.245000, Make: null, ID: T3, Quantity: TEMPERATURE
   555 Coords:      6.547739      0.000000      0.245000, Make: null, ID: T3, Quantity: TEMPERATURE
   556 Coords:      6.557789      0.000000      0.245000, Make: null, ID: T3, Quantity: TEMPERATURE
   557 Coords:      6.567839      0.000000      0.245000, Make: null, ID: T3, Quantity: TEMPERATURE
   558 Coords:      6.577889      0.000000      0.245000, Make: null, ID: T3, Quantity: TEMPERATURE
   559 Coords:      6.587940      0.000000      0.245000, Make: null, ID: T3, Quantity: TEMPERATURE
   560 Coords:      6.597990      0.000000      0.245000, Make: null, ID: T3, Quantity: TEMPERATURE
   561 Coords:      6.608040      0.000000      0.245000, Make: null, ID: T3, Quantity: TEMPERATURE
   562 Coords:      6.618090      0.000000      0.245000, Make: null, ID: T3, Quantity: TEMPERATURE
   563 Coords:      6.628141      0.000000      0.245000, Make: null, ID: T3, Quantity: TEMPERATURE
[...]
       Max divergence:  0.13E-06 at (  14,   9,   9)
       Min divergence: -0.99E-07 at (  41,   9,   8)
       Max VN number:   0.16E-01 at (  14,   2,  24)
       Mesh    9
       Max CFL number:  0.14E+00 at (  10,   6,  15)
       Max divergence:  0.11E-06 at (  49,   9,  19)
       Min divergence: -0.10E-06 at (   3,   8,  21)
       Max VN number:   0.16E-01 at (  49,   2,  24)
       Mesh   10
       Max CFL number:  0.14E+00 at (  19,  10,  17)
       Max divergence:  0.13E-05 at (  50,  14,  25)
       Min divergence: -0.10E-06 at (  10,  12,   4)
       Max VN number:   0.16E-01 at (  31,   2,  24)
       Mesh   11
       Max CFL number:  0.14E+00 at (  50,  10,   8)
       Max divergence:  0.36E-04 at (  50,   1,  16)
       Min divergence: -0.20E-07 at (   1,   9,  13)
       Max VN number:   0.16E-01 at (  36,  13,   2)
       Mesh   12
       Max CFL number:  0.15E+00 at (  50,   8,   6)
       Max divergence:  0.52E-03 at (  50,   1,  25)
       Min divergence:  0.57E-06 at (   3,   9,   5)
       Max VN number:   0.19E-01 at (  50,   2,  24)
       Mesh   13
       Max CFL number:  0.84E+00 at (  43,   8,   6)
       Max divergence:  0.57E+02 at (  35,   7,   1)
       Min divergence: -0.11E+02 at (  40,   8,   5)
       Max VN number:   0.24E+00 at (  42,   6,   1)
       Mesh   14
       Max CFL number:  0.65E+00 at (   1,  10,  14)
       Max divergence:  0.20E+01 at (   1,   6,  12)
       Min divergence: -0.19E+01 at (   3,  10,  16)
       Max VN number:   0.23E+00 at (  14,   8,   1)
       Mesh   15
       Max CFL number:  0.36E+00 at (   2,   4,  24)
       Max divergence:  0.27E+00 at (  43,   8,  25)
       Min divergence: -0.36E+00 at (  44,   9,  25)
       Max VN number:   0.73E-01 at (   1,   2,  14)
       Mesh   16
       Max CFL number:  0.35E+00 at (  37,   9,  24)
       Max divergence:  0.21E+00 at (  12,  14,  15)
       Min divergence: -0.27E+00 at (   3,  12,  25)
       Max VN number:   0.67E-01 at (  37,   9,  24)
       Mesh   17
       Max CFL number:  0.19E+00 at (   1,   6,  22)
       Max divergence:  0.79E-02 at (   1,  13,  25)
       Min divergence: -0.61E-05 at (   1,  12,  16)
       Max VN number:   0.18E-01 at (   1,   2,  24)
       Mesh   18
       Max CFL number:  0.16E+00 at (  19,   9,  14)
       Max divergence:  0.94E-07 at (   2,  13,   6)
       Min divergence: -0.94E-07 at (  21,   9,  13)
       Max VN number:   0.17E-01 at (  49,  13,  24)
       Mesh   19
       Max CFL number:  0.16E+00 at (  33,   7,  18)
       Max divergence:  0.10E-06 at (  28,   6,  15)
       Min divergence: -0.10E-06 at (   4,   2,   8)
       Max VN number:   0.17E-01 at (   9,   2,   2)
       Mesh   20
       Max CFL number:  0.16E+00 at (  27,   6,  16)
       Max divergence:  0.11E-06 at (  40,  14,   3)
       Min divergence: -0.91E-07 at (  41,  10,   5)
       Max VN number:   0.17E-01 at (   4,   2,  24)
       Mesh   21
       Max CFL number:  0.16E+00 at (  22,   5,  20)
       Max divergence:  0.96E-07 at (  33,   5,  15)
       Min divergence: -0.10E-06 at (  31,   5,   9)
       Max VN number:   0.17E-01 at (  32,  13,   2)
       Mesh   22
       Max CFL number:  0.16E+00 at (   5,   7,   8)
       Max divergence:  0.11E-06 at (  47,   7,  20)
       Min divergence: -0.96E-07 at (  41,   6,  14)
       Max VN number:   0.17E-01 at (  26,   2,   2)
       Mesh   23
       Max CFL number:  0.16E+00 at (  18,   9,  10)
       Max divergence:  0.10E-06 at (  25,  11,  17)
       Min divergence: -0.11E-06 at (   2,   1,   5)
       Max VN number:   0.17E-01 at (   4,  13,  24)
       Mesh   24
       Max CFL number:  0.16E+00 at (  17,   9,  16)
       Max divergence:  0.10E-06 at (   2,   6,  20)
       Min divergence: -0.10E-06 at (   8,   1,   3)
       Max VN number:   0.17E-01 at (  45,   2,   2)
       Mesh   25
       Max CFL number:  0.16E+00 at (  50,   8,   9)
       Max divergence:  0.11E-06 at (  32,   5,  16)
       Min divergence: -0.10E-06 at (  12,  12,  16)
       Max VN number:   0.17E-01 at (  38,  13,  24)
       Mesh   26
       Max CFL number:  0.16E+00 at (   1,   8,   9)
       Max divergence:  0.11E-06 at (  38,   6,  16)
       Min divergence: -0.11E-06 at (  33,   3,   9)
       Max VN number:   0.17E-01 at (  50,   2,   2)
       Mesh   27
       Max CFL number:  0.16E+00 at (  17,   8,  21)
       Max divergence:  0.12E-06 at (  46,  13,  15)
       Min divergence: -0.12E-06 at (   4,   1,   5)
       Max VN number:   0.17E-01 at (   1,   2,   2)
       Mesh   28
       Max CFL number:  0.16E+00 at (  22,   6,  20)
       Max divergence:  0.10E-06 at (  23,   6,  11)
       Min divergence: -0.12E-06 at (  29,  10,  20)
       Max VN number:   0.17E-01 at (  13,   2,  24)
       Mesh   29
       Max CFL number:  0.16E+00 at (  49,   8,  15)
       Max divergence:  0.11E-06 at (  47,   2,  18)
       Min divergence: -0.10E-06 at (  50,  14,  24)
       Max VN number:   0.17E-01 at (  38,  13,  24)
       Mesh   30
       Max CFL number:  0.16E+00 at (  48,   9,  16)
       Max divergence:  0.11E-06 at (   5,  14,  24)
       Min divergence: -0.11E-06 at (   4,   2,   4)
       Max VN number:   0.17E-01 at (   6,   2,   2)
 
       Time Step     900   March 11, 2021  12:21:57
       Step Size:    0.420E-02 s, Total Time:       4.91 s
       Pressure Iterations:      1
       Maximum Velocity Error:  0.22E-15 on Mesh  13 at (  51  11   3)
       Maximum Pressure Error:  0.16E+06 on Mesh  13 at (  23   4   1)
       ScaRC: Iterations    47, Residual  0.60E-08, Rate   0.48E+00
       ---------------------------------------------------------------
       Mesh    1
       Max CFL number:  0.19E+00 at (  50,   4,  22)
       Max divergence:  0.23E-06 at (   9,   7,   2)
       Min divergence: -0.23E-06 at (  12,   5,  24)
       Max VN number:   0.21E-01 at (  50,  13,  24)
       Mesh    2
       Max CFL number:  0.20E+00 at (  50,  10,  21)
       Max divergence:  0.14E-06 at (   1,  12,   3)
       Min divergence: -0.14E-06 at (   1,   3,  23)
       Max VN number:   0.21E-01 at (  12,   2,  24)
       Mesh    3
       Max CFL number:  0.20E+00 at (  29,   6,   9)
       Max divergence:  0.88E-07 at (   9,   8,   6)
       Min divergence: -0.93E-07 at (  16,  14,  23)
       Max VN number:   0.21E-01 at (  27,  13,   2)
       Mesh    4
       Max CFL number:  0.20E+00 at (  49,   9,  18)
       Max divergence:  0.10E-06 at (  25,   8,   7)
       Min divergence: -0.88E-07 at (   9,   9,  11)
       Max VN number:   0.21E-01 at (  10,   2,   2)
       Mesh    5
       Max CFL number:  0.20E+00 at (  24,  10,  19)
       Max divergence:  0.11E-06 at (  17,   5,   7)
       Min divergence: -0.87E-07 at (   6,   7,  17)
       Max VN number:   0.21E-01 at (  41,  13,   2)
       Mesh    6
       Max CFL number:  0.20E+00 at (   1,   6,  12)
       Max divergence:  0.98E-07 at (  14,   8,  15)
       Min divergence: -0.97E-07 at (  36,   9,  13)
       Max VN number:   0.21E-01 at (   5,   2,   2)
       Mesh    7
       Max CFL number:  0.20E+00 at (  24,   9,  15)
       Max divergence:  0.93E-07 at (   8,  10,  18)
       Min divergence: -0.86E-07 at (   7,   7,  19)
       Max VN number:   0.21E-01 at (  22,   2,   2)
       Mesh    8
       Max CFL number:  0.20E+00 at (  11,   7,  18)
       Max divergence:  0.90E-07 at (  33,  10,  10)
       Min divergence: -0.12E-06 at (  26,   1,  24)
       Max VN number:   0.21E-01 at (  28,   2,  24)
       Mesh    9
       Max CFL number:  0.20E+00 at (  22,   8,  20)
       Max divergence:  0.11E-06 at (  33,  10,  14)
       Min divergence: -0.90E-07 at (  44,  12,  12)
       Max VN number:   0.21E-01 at (   2,  13,   2)
       Mesh   10
       Max CFL number:  0.20E+00 at (  15,  10,  15)
       Max divergence:  0.16E-05 at (  50,  14,  25)
       Min divergence: -0.95E-07 at (  20,   7,  13)
       Max VN number:   0.21E-01 at (  14,   2,  24)
       Mesh   11
       Max CFL number:  0.20E+00 at (  46,   8,   4)
       Max divergence:  0.37E-04 at (  50,   1,  15)
       Min divergence: -0.15E-06 at (  22,   7,   8)
       Max VN number:   0.21E-01 at (  50,  13,   2)
       Mesh   12
       Max CFL number:  0.21E+00 at (  50,  10,   4)
       Max divergence:  0.27E-03 at (  50,   1,   6)
       Min divergence:  0.58E-06 at (   1,   6,   2)
       Max VN number:   0.23E-01 at (  50,   2,  24)
       Mesh   13
       Max CFL number:  0.99E+00 at (  35,   8,   1)
       Max divergence:  0.55E+02 at (  32,   9,   1)
       Min divergence: -0.52E+01 at (  33,   8,   4)
       Max VN number:   0.57E+00 at (  47,   8,   1)
       Mesh   14
       Max CFL number:  0.85E+00 at (  10,   9,   7)
       Max divergence:  0.29E+01 at (   1,  10,   5)
       Min divergence: -0.24E+01 at (   1,  11,   3)
       Max VN number:   0.39E+00 at (  18,   1,   3)
       Mesh   15
       Max CFL number:  0.53E+00 at (  15,   4,  25)
       Max divergence:  0.36E+00 at (  26,   1,  25)
       Min divergence: -0.34E+00 at (  24,   8,  25)
       Max VN number:   0.19E+00 at (   3,   1,  12)
       Mesh   16
       Max CFL number:  0.45E+00 at (  36,  13,  25)
       Max divergence:  0.33E+00 at (  22,  10,  25)
       Min divergence: -0.30E+00 at (   3,   9,  25)
       Max VN number:   0.72E-01 at (  50,  13,  13)
       Mesh   17
       Max CFL number:  0.46E+00 at (  17,   2,  25)
       Max divergence:  0.16E+00 at (  17,   9,  25)
       Min divergence: -0.17E+00 at (  19,   2,  25)
       Max VN number:   0.74E-01 at (  16,   2,  24)
       Mesh   18
       Max CFL number:  0.23E+00 at (   1,   5,  19)
       Max divergence:  0.14E-06 at (   8,  14,   2)
       Min divergence: -0.17E-06 at (   1,   8,  12)
       Max VN number:   0.23E-01 at (  45,   2,   2)
       Mesh   19
       Max CFL number:  0.23E+00 at (   6,   9,  11)
       Max divergence:  0.10E-06 at (  27,   7,  19)
       Min divergence: -0.11E-06 at (  14,  14,  22)
       Max VN number:   0.23E-01 at (  14,  13,  24)
       Mesh   20
       Max CFL number:  0.23E+00 at (  32,   8,   6)
       Max divergence:  0.95E-07 at (  47,   1,  23)
       Min divergence: -0.11E-06 at (  33,   8,  14)
       Max VN number:   0.23E-01 at (  20,   2,  24)
       Mesh   21
       Max CFL number:  0.23E+00 at (  31,   9,  14)
       Max divergence:  0.99E-07 at (  43,  14,   2)
       Min divergence: -0.10E-06 at (  49,   5,   9)
       Max VN number:   0.23E-01 at (   6,  13,   2)
       Mesh   22
       Max CFL number:  0.23E+00 at (  35,   6,   8)
       Max divergence:  0.13E-06 at (  22,  14,  24)
       Min divergence: -0.12E-06 at (  18,  14,  24)
       Max VN number:   0.23E-01 at (  42,   2,   2)
       Mesh   23
       Max CFL number:  0.23E+00 at (  34,   9,  10)
       Max divergence:  0.12E-06 at (  10,   1,   3)
       Min divergence: -0.12E-06 at (  14,   1,   2)
       Max VN number:   0.23E-01 at (  28,   2,   2)
       Mesh   24
       Max CFL number:  0.23E+00 at (  23,   9,  18)
       Max divergence:  0.11E-06 at (  11,  14,  24)
       Min divergence: -0.99E-07 at (  17,   1,  24)
       Max VN number:   0.23E-01 at (  41,   2,   2)
       Mesh   25
       Max CFL number:  0.23E+00 at (  18,  10,   7)
       Max divergence:  0.13E-06 at (  25,  14,   2)
       Min divergence: -0.13E-06 at (  50,   1,  24)
       Max VN number:   0.23E-01 at (  44,   2,   2)
       Mesh   26
       Max CFL number:  0.23E+00 at (  18,   8,   9)
       Max divergence:  0.13E-06 at (   3,   1,  23)
       Min divergence: -0.11E-06 at (   1,   1,  24)
       Max VN number:   0.23E-01 at (  15,   2,  24)
       Mesh   27
       Max CFL number:  0.23E+00 at (  45,   9,  17)
       Max divergence:  0.10E-06 at (  41,   1,  23)
       Min divergence: -0.12E-06 at (  38,   1,  24)
       Max VN number:   0.23E-01 at (  17,   2,   2)
       Mesh   28
       Max CFL number:  0.23E+00 at (  31,   5,   8)
       Max divergence:  0.11E-06 at (  30,   1,  24)
       Min divergence: -0.12E-06 at (  19,   1,   2)
       Max VN number:   0.23E-01 at (  28,   2,  24)
       Mesh   29
       Max CFL number:  0.23E+00 at (   4,   9,  19)
       Max divergence:  0.13E-06 at (   2,   1,  24)
       Min divergence: -0.13E-06 at (   6,  14,   2)
       Max VN number:   0.23E-01 at (  20,   2,  24)
       Mesh   30
       Max CFL number:  0.23E+00 at (   8,   9,  13)
       Max divergence:  0.18E-06 at (  16,  14,  24)
       Min divergence: -0.16E-06 at (  12,  14,  24)
       Max VN number:   0.23E-01 at (  21,   2,   2)
 
       Time Step     922   March 11, 2021  12:22:17
       Step Size:    0.219E-02 s, Total Time:       5.00 s
       Pressure Iterations:      5
       Maximum Velocity Error:  0.22E-15 on Mesh  13 at (  51   5   4)
       Maximum Pressure Error:  0.92E+05 on Mesh  13 at (  25  11   1)
       ScaRC: Iterations    39, Residual  0.68E-08, Rate   0.44E+00
       ---------------------------------------------------------------
       Mesh    1
       Max CFL number:  0.10E+00 at (  50,  11,   4)
       Max divergence:  0.23E-06 at (   8,   2,   2)
       Min divergence: -0.23E-06 at (  11,   5,  24)
       Max VN number:   0.11E-01 at (  50,   2,   2)
       Mesh    2
       Max CFL number:  0.10E+00 at (  50,   7,  21)
       Max divergence:  0.14E-06 at (   2,   3,   3)
       Min divergence: -0.14E-06 at (   1,  10,  23)
       Max VN number:   0.11E-01 at (   9,  13,   2)
       Mesh    3
       Max CFL number:  0.10E+00 at (  33,   6,   9)
       Max divergence:  0.95E-07 at (   3,  14,  22)
       Min divergence: -0.96E-07 at (  19,  14,  23)
       Max VN number:   0.11E-01 at (  31,  13,   2)
       Mesh    4
       Max CFL number:  0.10E+00 at (  27,   8,   5)
       Max divergence:  0.10E-06 at (  10,   7,   9)
       Min divergence: -0.86E-07 at (  42,   5,  11)
       Max VN number:   0.11E-01 at (  13,   2,   2)
       Mesh    5
       Max CFL number:  0.10E+00 at (  21,   6,  18)
       Max divergence:  0.10E-06 at (  20,   5,   7)
       Min divergence: -0.96E-07 at (  10,   7,  17)
       Max VN number:   0.11E-01 at (  44,  13,   2)
       Mesh    6
       Max CFL number:  0.10E+00 at (   2,   6,  12)
       Max divergence:  0.96E-07 at (  17,   8,  15)
       Min divergence: -0.86E-07 at (  16,   9,   8)
       Max VN number:   0.11E-01 at (   8,   2,   2)
       Mesh    7
       Max CFL number:  0.10E+00 at (  43,   5,  11)
       Max divergence:  0.87E-07 at (  12,  10,  18)
       Min divergence: -0.94E-07 at (  11,   7,  19)
       Max VN number:   0.11E-01 at (  25,   2,   2)
       Mesh    8
       Max CFL number:  0.10E+00 at (  15,   7,  18)
       Max divergence:  0.90E-07 at (  37,  10,  10)
       Min divergence: -0.13E-06 at (  28,   1,  24)
       Max VN number:   0.11E-01 at (  32,   2,  24)
       Mesh    9
       Max CFL number:  0.10E+00 at (  47,   6,  14)
       Max divergence:  0.12E-06 at (  37,   9,  14)
       Min divergence: -0.94E-07 at (  46,  12,  12)
       Max VN number:   0.11E-01 at (   5,  13,   2)
       Mesh   10
       Max CFL number:  0.10E+00 at (   7,   7,  19)
       Max divergence:  0.16E-05 at (  50,   1,  25)
       Min divergence: -0.80E-07 at (  23,  11,  20)
       Max VN number:   0.11E-01 at (  17,   2,  24)
       Mesh   11
       Max CFL number:  0.10E+00 at (  50,   6,  20)
       Max divergence:  0.38E-04 at (  50,  14,  15)
       Min divergence: -0.17E-06 at (  18,   7,   8)
       Max VN number:   0.11E-01 at (  25,   2,   2)
       Mesh   12
       Max CFL number:  0.11E+00 at (  48,   8,   5)
       Max divergence:  0.30E-03 at (  50,   1,   6)
       Min divergence:  0.57E-06 at (   1,   7,   4)
       Max VN number:   0.12E-01 at (  48,   2,  24)
       Mesh   13
       Max CFL number:  0.51E+00 at (  34,   7,   1)
       Max divergence:  0.60E+02 at (  37,   7,   1)
       Min divergence: -0.66E+01 at (  24,  11,   1)
       Max VN number:   0.20E+00 at (  48,   7,   1)
       Mesh   14
       Max CFL number:  0.43E+00 at (   4,   5,   7)
       Max divergence:  0.29E+01 at (   1,   6,   8)
       Min divergence: -0.29E+01 at (   9,   9,  10)
       Max VN number:   0.18E+00 at (  14,   8,   1)
       Mesh   15
       Max CFL number:  0.26E+00 at (  18,   1,  20)
       Max divergence:  0.27E+00 at (  28,  14,  20)
       Min divergence: -0.36E+00 at (  36,   8,  25)
       Max VN number:   0.89E-01 at (   7,   1,  12)
       Mesh   16
       Max CFL number:  0.24E+00 at (  11,  13,  25)
       Max divergence:  0.30E+00 at (  28,  10,  25)
       Min divergence: -0.28E+00 at (  24,  14,  22)
       Max VN number:   0.32E-01 at (  27,  13,  24)
       Mesh   17
       Max CFL number:  0.25E+00 at (  24,   2,  25)
       Max divergence:  0.15E+00 at (  23,   8,  23)
       Min divergence: -0.22E+00 at (  29,  12,  24)
       Max VN number:   0.40E-01 at (  20,   7,  24)
       Mesh   18
       Max CFL number:  0.12E+00 at (   1,   7,  21)
       Max divergence:  0.15E-06 at (  11,  14,   2)
       Min divergence: -0.35E-06 at (   1,  12,  17)
       Max VN number:   0.12E-01 at (  48,   2,   2)
       Mesh   19
       Max CFL number:  0.12E+00 at (  23,   6,   8)
       Max divergence:  0.10E-06 at (  29,  14,  24)
       Min divergence: -0.11E-06 at (  34,  14,  24)
       Max VN number:   0.12E-01 at (  18,  13,  24)
       Mesh   20
       Max CFL number:  0.12E+00 at (  36,   8,   6)
       Max divergence:  0.11E-06 at (  16,  14,  24)
       Min divergence: -0.96E-07 at (  29,   1,  24)
       Max VN number:   0.12E-01 at (  23,   2,  24)
       Mesh   21
       Max CFL number:  0.12E+00 at (   1,   6,  16)
       Max divergence:  0.95E-07 at (  46,  14,   2)
       Min divergence: -0.10E-06 at (  42,  14,   2)
       Max VN number:   0.12E-01 at (  10,  13,   2)
       Mesh   22
       Max CFL number:  0.12E+00 at (  20,   6,   7)
       Max divergence:  0.14E-06 at (  25,  14,  24)
       Min divergence: -0.13E-06 at (  21,  14,  24)
       Max VN number:   0.12E-01 at (   2,  13,   2)
       Mesh   23
       Max CFL number:  0.12E+00 at (  16,   8,  18)
       Max divergence:  0.14E-06 at (  13,   1,   2)
       Min divergence: -0.11E-06 at (  17,   1,   2)
       Max VN number:   0.12E-01 at (  24,  13,  24)
       Mesh   24
       Max CFL number:  0.12E+00 at (  33,   7,  14)
       Max divergence:  0.13E-06 at (  13,  14,  24)
       Min divergence: -0.11E-06 at (   2,  14,   2)
       Max VN number:   0.12E-01 at (  45,   2,   2)
       Mesh   25
       Max CFL number:  0.12E+00 at (  10,   7,   7)
       Max divergence:  0.14E-06 at (   8,  14,   2)
       Min divergence: -0.13E-06 at (  22,  14,   3)
       Max VN number:   0.12E-01 at (  48,   2,   2)
       Mesh   26
       Max CFL number:  0.12E+00 at (  15,   6,  11)
       Max divergence:  0.13E-06 at (   6,   1,  23)
       Min divergence: -0.14E-06 at (   3,   1,  24)
       Max VN number:   0.12E-01 at (  19,   2,  24)
       Mesh   27
       Max CFL number:  0.12E+00 at (  34,   6,  18)
       Max divergence:  0.10E-06 at (  12,   1,   4)
       Min divergence: -0.13E-06 at (  41,   1,  24)
       Max VN number:   0.12E-01 at (  20,   2,   2)
       Mesh   28
       Max CFL number:  0.12E+00 at (  21,   6,  13)
       Max divergence:  0.12E-06 at (  38,   1,  23)
       Min divergence: -0.12E-06 at (  22,   1,   2)
       Max VN number:   0.12E-01 at (  32,   2,  24)
       Mesh   29
       Max CFL number:  0.12E+00 at (   9,   8,  19)
       Max divergence:  0.14E-06 at (   5,   1,  24)
       Min divergence: -0.15E-06 at (   9,  14,   2)
       Max VN number:   0.12E-01 at (  23,   2,  24)
       Mesh   30
       Max CFL number:  0.12E+00 at (  12,   9,  13)
       Max divergence:  0.21E-06 at (  19,  14,  24)
       Min divergence: -0.17E-06 at (  15,  14,  24)
       Max VN number:   0.12E-01 at (  25,   2,   2)
 


 Time Stepping Wall Clock Time (s):      607.503
 Total Elapsed Wall Clock Time (s):      638.246

STOP: FDS completed successfully (CHID: Wu_Bakar_Tunnel_A_scarc_xmean)
